2024-04-09T17:05:26,684  INFO Gbl:64 JVM: 17.0.10; Eclipse Adoptium; mixed mode, sharing; 64-bit
2024-04-09T17:05:26,684  INFO Gbl:68 OS: Windows 10; 10.0; amd64
2024-04-09T17:05:26,684  INFO Gbl:71 CPU cores: 8
2024-04-09T17:05:26,684  INFO Gbl:72 max. Memory: 8160.0MB (8556380160B)
2024-04-09T17:05:26,684  INFO Gbl:110 MATSim-Build: ra76d70e12c1ca93f702007bdf2cc365001d5f50e (2023-04-12 08:36:22)
2024-04-09T17:05:26,684  INFO ControlerListenerManagerImpl:108 calling notifyStartup on org.matsim.core.controler.ControlerDefaultsModule$1
2024-04-09T17:05:26,684  INFO ControlerListenerManagerImpl:108 calling notifyStartup on org.matsim.guice.DependencyGraphControlerListener
2024-04-09T17:05:26,684  INFO MemoryObserver:42 used RAM: 869 MB  free: 842 MB  total: 1712 MB
2024-04-09T17:05:26,801  INFO ControlerListenerManagerImpl:108 calling notifyStartup on org.matsim.counts.CountsControlerListener
2024-04-09T17:05:26,801  INFO ControlerListenerManagerImpl:108 calling notifyStartup on org.matsim.analysis.ModeStatsControlerListener
2024-04-09T17:05:26,801  INFO ControlerListenerManagerImpl:108 calling notifyStartup on org.matsim.analysis.ScoreStatsControlerListener
2024-04-09T17:05:26,801  INFO ControlerListenerManagerImpl:108 calling notifyStartup on org.matsim.contribs.discrete_mode_choice.modules.utils.ModeChoiceInTheLoopChecker
2024-04-09T17:05:26,801  INFO ControlerListenerManagerImpl:108 calling notifyStartup on org.eqasim.core.simulation.analysis.stuck.StuckAnalysisListener
2024-04-09T17:05:26,801  INFO ControlerListenerManagerImpl:108 calling notifyStartup on org.eqasim.vdf.VDFUpdateListener
2024-04-09T17:05:26,801  INFO ControlerListenerManagerImpl:111 all ControlerStartupListeners called.
2024-04-09T17:05:26,801  INFO ControlerUtils:80 config dump before iterations start
2024-04-09T17:05:26,801  INFO ControlerUtils:84 

<?xml version="1.0" encoding="UTF-8"?>
<!DOCTYPE config SYSTEM "http://www.matsim.org/files/dtd/config_v2.dtd">
<config>
	<module name="DiscreteModeChoice" >
		<param name="accumulateEstimationDelays" value="true" />
		<!-- Trips tested with the modes listed here will be cached for each combination of trip and agent during one replanning pass. -->
		<param name="cachedModes" value="pt, car, truck, car_passenger, walk, bike" />
		<!-- Defines whether to run a runtime check that verifies that everything is set up correctl for a 'mode-choice-in-the-loop' setup. -->
		<param name="enforceSinglePlan" value="true" />
		<!-- Defines what happens if there is no feasible choice alternative for an agent: IGNORE_AGENT, INITIAL_CHOICE, EXCEPTION -->
		<param name="fallbackBehaviour" value="EXCEPTION" />
		<!-- Defines how home activities are identified. Built-in choices: FirstActivity, ActivityBased -->
		<param name="homeFinder" value="EqasimHomeFinder" />
		<!-- Defines which ModeAvailability component to use. Built-in choices: Default, Car -->
		<param name="modeAvailability" value="IDFModeAvailability" />
		<!-- Main model type: Trip, Tour -->
		<param name="modelType" value="Tour" />
		<!-- Defines whether the DiscreteModeChoice strategy should be followed by a rerouting of all trips. If the estimator returns alternatives with routes attached this is not necessary. -->
		<param name="performReroute" value="false" />
		<!-- Defines which Selector component to use. Built-in choices: Maximum, MultinomialLogit, Random -->
		<param name="selector" value="MultinomialLogit" />
		<!-- Defines a number of TourConstraint components that should be activated. Built-in choices: FromTripBased, VehicleContinuity, SubtourMode -->
		<param name="tourConstraints" value="FromTripBased, EqasimVehicleTourConstraint" />
		<!-- Defines which TourEstimator component to use. Built-in choices: MATSimDayScoring, Cumulative, Uniform -->
		<param name="tourEstimator" value="Cumulative" />
		<!-- Defines a number of TourFilter components that should be activated. Built-in choices: TourLength -->
		<param name="tourFilters" value="TourLengthFilter, OutsideFilter" />
		<!-- Defines which TourFinder component to use. Built-in choices: PlanBased, ActivityBased, HomeBased -->
		<param name="tourFinder" value="ActivityBased" />
		<!-- Defines a number of TripConstraint components that should be activated. Built-in choices: VehicleContinuity, ShapeFile, LinkAttribute, TransitWalk -->
		<param name="tripConstraints" value="PassengerConstraint, OutsideConstraint, TransitWalk" />
		<!-- Defines which TripEstimator component to use. Built-in choices: MATSimTripScoring, Uniform -->
		<param name="tripEstimator" value="EqasimUtilityEstimator" />
		<!-- Defines a number of TripFilter components that should be activated. Built-in choices:  -->
		<param name="tripFilters" value="" />
		<parameterset type="homeFinder:ActivityBased" >
			<!-- Comma-separated activity types which should be considered as home. -->
			<param name="activityTypes" value="home" />
		</parameterset>
		<parameterset type="modeAvailability:Car" >
			<!-- Defines which modes are avialable to the agents. -->
			<param name="availableModes" value="pt, car, walk, bike" />
		</parameterset>
		<parameterset type="modeAvailability:Default" >
			<!-- Defines which modes are avialable to the agents. -->
			<param name="availableModes" value="pt, car, walk, bike" />
		</parameterset>
		<parameterset type="selector:MultinomialLogit" >
			<!-- Defines whether candidates with a utility lower than the minimum utility should be filtered out. -->
			<param name="considerMinimumUtility" value="false" />
			<!-- Candidates with a utility above that threshold will be cut off to this value. -->
			<param name="maximumUtility" value="700.0" />
			<!-- Candidates with a utility lower than that threshold will not be considered by default. -->
			<param name="minimumUtility" value="-700.0" />
		</parameterset>
		<parameterset type="tourConstraint:SubtourMode" >
			<!-- Modes for which the sub-tour behaviour should be replicated. If all available modes are put here, this equals to SubTourModeChoice with singleLegProbability == 0.0; if only the constrained modes are put here, it equals singleLegProbability > 0.0 -->
			<param name="constrainedModes" value="" />
		</parameterset>
		<parameterset type="tourConstraint:VehicleContinuity" >
			<!-- Defines which modes must fulfill continuity constraints (can only be used where they have been brough to before) -->
			<param name="restrictedModes" value="car, bike" />
		</parameterset>
		<parameterset type="tourFilter:TourLength" >
			<!-- Defines the maximum allowed length of a tour. -->
			<param name="maximumLength" value="10" />
		</parameterset>
		<parameterset type="tourFinder:ActivityBased" >
			<!-- Comma-separated activity types which should be considered as start and end of a tour. If a plan does not start or end with such an activity additional tours are added. -->
			<param name="activityTypes" value="outside, home" />
		</parameterset>
		<parameterset type="tripConstraint:LinkAttribute" >
			<!-- Link attribute that will be considered for feasibility of the trip. -->
			<param name="attributeName" value="null" />
			<!-- Value that the link attributes should equal. -->
			<param name="attributeValue" value="null" />
			<!-- Modes for which the constraint will be considered. -->
			<param name="constrainedModes" value="" />
			<!-- Defines the criterion on when a trip with the constrained mode will be allowed: ORIGIN, DESTINATION, BOTH, ANY, NONE -->
			<param name="requirement" value="BOTH" />
		</parameterset>
		<parameterset type="tripConstraint:ShapeFile" >
			<!-- Modes for which the shapes will be considered. -->
			<param name="constrainedModes" value="" />
			<!-- Path to a shape file, which should have the same projection as the network. -->
			<param name="path" value="null" />
			<!-- Defines the criterion on when a trip with the constrained mode will be allowed: ORIGIN, DESTINATION, BOTH, ANY, NONE -->
			<param name="requirement" value="BOTH" />
		</parameterset>
		<parameterset type="tripConstraint:VehicleContinuity" >
			<!-- Defines if the advanced constriant is used (vehicles must be brought back home). -->
			<param name="isAdvanced" value="true" />
			<!-- Defines which modes must fulfill continuity constraints (can only be used where they have been brough to before) -->
			<param name="restrictedModes" value="car, bike" />
		</parameterset>
		<parameterset type="tripEstimator:MATSimTripScoring" >
			<!-- Modes which are considered as public transit, i.e. they involve waiting for a vehicle. -->
			<param name="ptLegModes" value="pt" />
		</parameterset>
	</module>
	<module name="JDEQSim" >
		<param name="carSize" value="7.5" />
		<param name="endTime" value="undefined" />
		<param name="flowCapacityFactor" value="1.0" />
		<param name="gapTravelSpeed" value="15.0" />
		<param name="minimumInFlowCapacity" value="1800.0" />
		<param name="squeezeTime" value="1800.0" />
		<param name="storageCapacityFactor" value="1.0" />
	</module>
	<module name="ReplanningAnnealer" >
		<!-- Activate the scaling of replanning modules using an annealing approach rather than fixed rates. -->
		<param name="activateAnnealingModule" value="false" />
	</module>
	<module name="TimeAllocationMutator" >
		<!-- Default:true; Defines whether time mutation changes an activity's duration. -->
		<param name="mutationAffectsDuration" value="true" />
		<!-- Default:1800.0; Defines how many seconds a time mutation can maximally shift a time. -->
		<param name="mutationRange" value="1800.0" />
	</module>
	<module name="changeMode" >
		<!-- Defines whether car availability is considered be considered or not. An agent has no car only if it has no license, or never access to a car. Default: true -->
		<param name="ignoreCarAvailability" value="true" />
		<!-- Defines the mode switch behavior. Possible values [fromAllModesToSpecifiedModes, fromSpecifiedModesToSpecifiedModes] Default: fromSpecifiedModesToSpecifiedModes. -->
		<param name="modeSwitchBehavior" value="fromSpecifiedModesToSpecifiedModes" />
		<!-- Defines all the modes available, including chain-based modes, seperated by commas -->
		<param name="modes" value="car,pt" />
	</module>
	<module name="controler" >
		<!-- Defines what should be done with the ITERS directory when a simulation finished successfully -->
		<param name="cleanItersAtEnd" value="keep" />
		<!-- Compression algorithm to use when writing out data to files. Possible values: [none, gzip, lz4, zst] -->
		<param name="compressionType" value="gzip" />
		<!-- Sets whether graphs showing some analyses should automatically be generated during the simulation. The generation of graphs usually takes a small amount of time that does not have any weight in big simulations, but add a significant overhead in smaller runs or in test cases where the graphical output is not even requested. -->
		<param name="createGraphs" value="true" />
		<!-- Defines when the scoring functions for the population are created. Default=IterationStarts. Possible values: [IterationStarts, BeforeMobsim] -->
		<param name="createScoringFunctionType" value="IterationStarts" />
		<!-- true if at the end of a run, plans, network, config etc should be dumped to a file -->
		<param name="dumpDataAtEnd" value="true" />
		<!-- Default=false. If enabled, the router takes travel times needed for turning moves into account. Cannot be used if the (Fast)AStarLandmarks routing or TravelTimeCalculator.separateModes is enabled. -->
		<param name="enableLinkToLinkRouting" value="false" />
		<!-- Default=xml; Specifies the file format for writing events. Currently supported: [xml, pb, json]
		Multiple values can be specified separated by commas (','). -->
		<param name="eventsFileFormat" value="xml" />
		<!-- Default=0. First Iteration of a simulation. -->
		<param name="firstIteration" value="0" />
		<!-- Default=1000. Last Iteration of a simulation. -->
		<param name="lastIteration" value="2" />
		<!-- Defines which mobility simulation will be used. Currently supported: qsim JDEQSim hermes 
		Depending on the chosen mobsim, you'll have to add additional config modules to configure the corresponding mobsim.
		For 'qsim', add a module 'qsim' to the config. -->
		<param name="mobsim" value="qsim" />
		<param name="outputDirectory" value="simulation_output" />
		<!-- Possible values: failIfDirectoryExists,overwriteExistingFiles,deleteDirectoryIfExists -->
		<param name="overwriteFiles" value="deleteDirectoryIfExists" />
		<!-- The type of routing (least cost path) algorithm used, may have the values: [Dijkstra, AStarLandmarks, FastDijkstra, FastAStarLandmarks, SpeedyALT] -->
		<param name="routingAlgorithmType" value="FastAStarLandmarks" />
		<!-- An identifier for the current run which is used as prefix for output files and mentioned in output xml files etc. -->
		<param name="runId" value="null" />
		<!-- Comma-separated list of visualizer output file formats. `transims' and `otfvis'. -->
		<param name="snapshotFormat" value="" />
		<!-- iterationNumber % writeEventsInterval == 0 defines in which iterations events are written to a file. `0' disables events writing completely. -->
		<param name="writeEventsInterval" value="60" />
		<!-- iterationNumber % writePlansInterval == 0 defines (hopefully) in which iterations plans are written to a file. `0' disables plans writing completely.  Some plans in early iterations are always written -->
		<param name="writePlansInterval" value="60" />
		<!-- iterationNumber % writeSnapshotsInterval == 0 defines in which iterations snapshots are written to a file. `0' disables snapshots writing completely -->
		<param name="writeSnapshotsInterval" value="1" />
		<!-- iterationNumber % writeEventsInterval == 0 defines in which iterations trips CSV are written to a file. `0' disables trips writing completely. -->
		<param name="writeTripsInterval" value="50" />
	</module>
	<module name="counts" >
		<!-- Transport modes that will be respected for the counts comparison. 'car' is default, which includes also bussed from the pt simulation module. Use this parameter in combination with 'filterModes' = true! -->
		<param name="analyzedModes" value="car" />
		<!-- Specifies over how many iterations the link volumes should be averaged that are used for the counts comparison. Use 1 or 0 to only use the link volumes of a single iteration. This values cannot be larger than the value specified for writeCountsInterval -->
		<param name="averageCountsOverIterations" value="5" />
		<!-- factor by which to re-scale the simulated values.  necessary when simulation runs with something different from 100%.  needs to be adapted manually -->
		<param name="countsScaleFactor" value="1.0" />
		<!-- distance to distanceFilterCenterNode to include counting stations. The unit of distance is the Euclidean distance implied by the coordinate system -->
		<param name="distanceFilter" value="null" />
		<!-- node id for center node of distance filter -->
		<param name="distanceFilterCenterNode" value="null" />
		<!-- If true, link counts from legs performed on modes not included in the 'analyzedModes' parameter are ignored. -->
		<param name="filterModes" value="false" />
		<!-- The Coordinates Reference System in which the coordinates are expressed in the input file. At import, the coordinates will be converted to the coordinate system defined in "global", and willbe converted back at export. If not specified, no conversion happens. -->
		<param name="inputCRS" value="null" />
		<!-- input file name to counts package -->
		<param name="inputCountsFile" value="null" />
		<!-- possible values: `html', `txt', `all' -->
		<param name="outputformat" value="txt" />
		<!-- Specifies how often the counts comparison should be calculated and written. -->
		<param name="writeCountsInterval" value="10" />
	</module>
	<module name="eqasim" >
		<!-- Possible values: kilometer,meter,mile,foot -->
		<param name="analysisDistanceUnit" value="meter" />
		<param name="analysisInterval" value="60" />
		<param name="costParametersPath" value="null" />
		<param name="crossingPenalty" value="3.0" />
		<!-- Possible values: kilometer,meter,mile,foot -->
		<param name="distanceUnit" value="meter" />
		<param name="modeParametersPath" value="null" />
		<param name="sampleSize" value="0.001" />
		<param name="useScheduleBasedTransport" value="true" />
		<parameterset type="cost_model" >
			<param name="mode" value="car" />
			<param name="model" value="IDFCarCostModel" />
		</parameterset>
		<parameterset type="cost_model" >
			<param name="mode" value="pt" />
			<param name="model" value="IDFPtCostModel" />
		</parameterset>
		<parameterset type="estimator" >
			<param name="estimator" value="IDFCarUtilityEstimator" />
			<param name="mode" value="car" />
		</parameterset>
		<parameterset type="estimator" >
			<param name="estimator" value="PtUtilityEstimator" />
			<param name="mode" value="pt" />
		</parameterset>
		<parameterset type="estimator" >
			<param name="estimator" value="IDFBikeUtilityEstimator" />
			<param name="mode" value="bike" />
		</parameterset>
		<parameterset type="estimator" >
			<param name="estimator" value="WalkUtilityEstimator" />
			<param name="mode" value="walk" />
		</parameterset>
		<parameterset type="estimator" >
			<param name="estimator" value="ZeroUtilityEstimator" />
			<param name="mode" value="outside" />
		</parameterset>
		<parameterset type="estimator" >
			<param name="estimator" value="ZeroUtilityEstimator" />
			<param name="mode" value="car_passenger" />
		</parameterset>
		<parameterset type="estimator" >
			<param name="estimator" value="ZeroUtilityEstimator" />
			<param name="mode" value="truck" />
		</parameterset>
	</module>
	<module name="eqasim:vdf" >
		<param name="bpr:exponent" value="4.0" />
		<param name="bpr:factor" value="0.15" />
		<param name="capacityFactor" value="0.1" />
		<param name="endTime" value="24:00:00" />
		<param name="generateNetworkEvents" value="true" />
		<!-- Possible values: Horizon,Interpolation -->
		<param name="handler" value="Horizon" />
		<param name="horizon" value="10" />
		<param name="inputFile" value="null" />
		<param name="interval" value="01:00:00" />
		<param name="minimumSpeed" value="1.3888888888888888" />
		<param name="modes" value="car_passenger,car" />
		<param name="startTime" value="00:00:00" />
		<param name="writeFlowInterval" value="1" />
		<param name="writeInterval" value="1" />
	</module>
	<module name="eqasim:vdf_engine" >
		<param name="generateNetworkEvents" value="false" />
		<param name="modes" value="car" />
	</module>
	<module name="facilities" >
		<!-- This defines how facilities should be created. Possible values: none fromFile setInScenario onePerActivityLinkInPlansFile onePerActivityLinkInPlansFileExceptWhenCoordinatesAreGiven onePerActivityLocationInPlansFile  -->
		<param name="facilitiesSource" value="none" />
		<!-- A prefix to be used for auto-generated IDs. -->
		<param name="idPrefix" value="f_auto_" />
		<!-- The Coordinates Reference System in which the coordinates are expressed in the input file. At import, the coordinates will be converted to the coordinate system defined in "global", and willbe converted back at export. If not specified, no conversion happens. -->
		<param name="inputCRS" value="null" />
		<param name="inputFacilitiesFile" value="corsica_facilities.xml.gz" />
		<param name="inputFacilityAttributesFile" value="null" />
		<param name="insistingOnUsingDeprecatedFacilitiesAttributeFile" value="false" />
	</module>
	<module name="global" >
		<param name="coordinateSystem" value="Atlantis" />
		<param name="defaultDelimiter" value=";" />
		<param name="insistingOnDeprecatedConfigVersion" value="true" />
		<!-- "global" number of threads.  This number is used, e.g., for replanning, but NOT in QSim.  This can typically be set to as many cores as you have available, or possibly even slightly more. -->
		<param name="numberOfThreads" value="12" />
		<param name="randomSeed" value="1234" />
	</module>
	<module name="hermes" >
		<!-- Simulation End Time -->
		<param name="endTime" value="30:00:00" />
		<param name="flowCapacityFactor" value="1.0" />
		<param name="mainMode" value="car" />
		<param name="storageCapacityFactor" value="1.0" />
		<!-- time in seconds.  Time after which the frontmost vehicle on a link is called `stuck' if it does not move. Set to Integer.MAX_VALUE to disable this behavior -->
		<param name="stuckTime" value="10" />
		<!-- treats PT as deterministic. PT vehicles will run with a steady speed. Should be used with separate network layers for PT and other network modes. -->
		<param name="useDeterministicPt" value="false" />
	</module>
	<module name="households" >
		<param name="inputFile" value="corsica_households.xml.gz" />
		<param name="inputHouseholdAttributesFile" value="null" />
		<param name="insistingOnUsingDeprecatedHouseholdsAttributeFile" value="false" />
	</module>
	<module name="linkStats" >
		<!-- Specifies over how many iterations the link volumes should be averaged that are used for the link statistics. Use 1 or 0 to only use the link volumes of a single iteration. This values cannot be larger than the value specified for writeLinkStatsInterval -->
		<param name="averageLinkStatsOverIterations" value="5" />
		<!-- Specifies how often the link stats should be calculated and written. Use 0 to disable the generation of link stats. -->
		<param name="writeLinkStatsInterval" value="50" />
	</module>
	<module name="network" >
		<!-- The Coordinates Reference System in which the coordinates are expressed in the input file. At import, the coordinates will be converted to the coordinate system defined in "global", and willbe converted back at export. If not specified, no conversion happens. -->
		<param name="inputCRS" value="null" />
		<param name="inputChangeEventsFile" value="null" />
		<param name="inputNetworkFile" value="corsica_network.xml.gz" />
		<param name="laneDefinitionsFile" value="null" />
		<param name="timeVariantNetwork" value="false" />
	</module>
	<module name="parallelEventHandling" >
		<!-- Estimated number of events during mobsim run. An optional optimization hint for the framework. -->
		<param name="estimatedNumberOfEvents" value="null" />
		<!-- Size of the events Queue. Increase for very large scenarios -->
		<param name="eventsQueueSize" value="131072" />
		<!-- Number of threads for parallel events handler. _null_ means the framework decides by itself. 0 is currently not possible. -->
		<param name="numberOfThreads" value="null" />
		<!-- If enabled, each event handler is assigned to its own thread. Note that enabling this feature disabled the numberOfThreads option! This feature is still experimental! -->
		<param name="oneThreadPerHandler" value="false" />
		<!-- If enabled, it is ensured that all events that are created during a time step of the mobility simulation are processed before the next time step is simulated. E.g. neccessary when within-day replanning is used. -->
		<param name="synchronizeOnSimSteps" value="true" />
	</module>
	<module name="planCalcScore" >
		<!-- logit model scale parameter. default: 1.  Has name and default value for historical reasons (see Bryan Raney's phd thesis). -->
		<param name="BrainExpBeta" value="1.0" />
		<param name="PathSizeLogitBeta" value="1.0" />
		<!-- fraction of iterations at which MSA score averaging is started. The matsim theory department suggests to use this together with switching off choice set innovation (where a similar switch exists), but it has not been tested yet. -->
		<param name="fractionOfIterationsToStartScoreMSA" value="null" />
		<!-- new_score = (1-learningRate)*old_score + learningRate * score_from_mobsim.  learning rates close to zero emulate score averaging, but slow down initial convergence -->
		<param name="learningRate" value="1.0" />
		<!-- There used to be a plateau between duration=0 and duration=zeroUtilityDuration. This caused durations to evolve to zero once they were below zeroUtilityDuration, causing problems.  Only use this switch if you need to be backwards compatible with some old results.  (changed nov'13) -->
		<param name="usingOldScoringBelowZeroUtilityDuration" value="false" />
		<!-- write a plans file in each iteration directory which contains what each agent actually did, and the score it received. -->
		<param name="writeExperiencedPlans" value="false" />
		<parameterset type="scoringParameters" >
			<param name="earlyDeparture" value="-0.0" />
			<param name="lateArrival" value="-18.0" />
			<param name="marginalUtilityOfMoney" value="0.0" />
			<param name="performing" value="6.0" />
			<param name="subpopulation" value="null" />
			<param name="utilityOfLineSwitch" value="-1.0" />
			<param name="waiting" value="-0.0" />
			<param name="waitingPt" value="-1.0" />
			<parameterset type="activityParams" >
				<param name="activityType" value="dummy" />
				<param name="closingTime" value="undefined" />
				<param name="earliestEndTime" value="undefined" />
				<param name="latestStartTime" value="undefined" />
				<param name="minimalDuration" value="undefined" />
				<param name="openingTime" value="undefined" />
				<param name="priority" value="1.0" />
				<param name="scoringThisActivityAtAll" value="true" />
				<!-- typical duration of activity.  needs to be defined and non-zero.  in sec. -->
				<param name="typicalDuration" value="02:00:00" />
				<!-- method to compute score at typical duration.  Options: | uniform | relative | Use uniform for backwards compatibility (all activities same score; higher proba to drop long acts). -->
				<param name="typicalDurationScoreComputation" value="relative" />
			</parameterset>
			<parameterset type="activityParams" >
				<param name="activityType" value="car interaction" />
				<param name="closingTime" value="undefined" />
				<param name="earliestEndTime" value="undefined" />
				<param name="latestStartTime" value="undefined" />
				<param name="minimalDuration" value="undefined" />
				<param name="openingTime" value="undefined" />
				<param name="priority" value="1.0" />
				<param name="scoringThisActivityAtAll" value="false" />
				<param name="typicalDuration" value="undefined" />
				<param name="typicalDurationScoreComputation" value="relative" />
			</parameterset>
			<parameterset type="activityParams" >
				<param name="activityType" value="pt interaction" />
				<param name="closingTime" value="undefined" />
				<param name="earliestEndTime" value="undefined" />
				<param name="latestStartTime" value="undefined" />
				<param name="minimalDuration" value="undefined" />
				<param name="openingTime" value="undefined" />
				<param name="priority" value="1.0" />
				<param name="scoringThisActivityAtAll" value="false" />
				<param name="typicalDuration" value="undefined" />
				<param name="typicalDurationScoreComputation" value="relative" />
			</parameterset>
			<parameterset type="activityParams" >
				<param name="activityType" value="bike interaction" />
				<param name="closingTime" value="undefined" />
				<param name="earliestEndTime" value="undefined" />
				<param name="latestStartTime" value="undefined" />
				<param name="minimalDuration" value="undefined" />
				<param name="openingTime" value="undefined" />
				<param name="priority" value="1.0" />
				<param name="scoringThisActivityAtAll" value="false" />
				<param name="typicalDuration" value="undefined" />
				<param name="typicalDurationScoreComputation" value="relative" />
			</parameterset>
			<parameterset type="activityParams" >
				<param name="activityType" value="drt interaction" />
				<param name="closingTime" value="undefined" />
				<param name="earliestEndTime" value="undefined" />
				<param name="latestStartTime" value="undefined" />
				<param name="minimalDuration" value="undefined" />
				<param name="openingTime" value="undefined" />
				<param name="priority" value="1.0" />
				<param name="scoringThisActivityAtAll" value="false" />
				<param name="typicalDuration" value="undefined" />
				<param name="typicalDurationScoreComputation" value="relative" />
			</parameterset>
			<parameterset type="activityParams" >
				<param name="activityType" value="taxi interaction" />
				<param name="closingTime" value="undefined" />
				<param name="earliestEndTime" value="undefined" />
				<param name="latestStartTime" value="undefined" />
				<param name="minimalDuration" value="undefined" />
				<param name="openingTime" value="undefined" />
				<param name="priority" value="1.0" />
				<param name="scoringThisActivityAtAll" value="false" />
				<param name="typicalDuration" value="undefined" />
				<param name="typicalDurationScoreComputation" value="relative" />
			</parameterset>
			<parameterset type="activityParams" >
				<param name="activityType" value="other interaction" />
				<param name="closingTime" value="undefined" />
				<param name="earliestEndTime" value="undefined" />
				<param name="latestStartTime" value="undefined" />
				<param name="minimalDuration" value="undefined" />
				<param name="openingTime" value="undefined" />
				<param name="priority" value="1.0" />
				<param name="scoringThisActivityAtAll" value="false" />
				<param name="typicalDuration" value="undefined" />
				<param name="typicalDurationScoreComputation" value="relative" />
			</parameterset>
			<parameterset type="activityParams" >
				<param name="activityType" value="walk interaction" />
				<param name="closingTime" value="undefined" />
				<param name="earliestEndTime" value="undefined" />
				<param name="latestStartTime" value="undefined" />
				<param name="minimalDuration" value="undefined" />
				<param name="openingTime" value="undefined" />
				<param name="priority" value="1.0" />
				<param name="scoringThisActivityAtAll" value="false" />
				<param name="typicalDuration" value="undefined" />
				<param name="typicalDurationScoreComputation" value="relative" />
			</parameterset>
			<parameterset type="activityParams" >
				<param name="activityType" value="home" />
				<param name="closingTime" value="undefined" />
				<param name="earliestEndTime" value="undefined" />
				<param name="latestStartTime" value="undefined" />
				<param name="minimalDuration" value="undefined" />
				<param name="openingTime" value="undefined" />
				<param name="priority" value="1.0" />
				<param name="scoringThisActivityAtAll" value="false" />
				<param name="typicalDuration" value="undefined" />
				<param name="typicalDurationScoreComputation" value="relative" />
			</parameterset>
			<parameterset type="activityParams" >
				<param name="activityType" value="work" />
				<param name="closingTime" value="undefined" />
				<param name="earliestEndTime" value="undefined" />
				<param name="latestStartTime" value="undefined" />
				<param name="minimalDuration" value="undefined" />
				<param name="openingTime" value="undefined" />
				<param name="priority" value="1.0" />
				<param name="scoringThisActivityAtAll" value="false" />
				<param name="typicalDuration" value="undefined" />
				<param name="typicalDurationScoreComputation" value="relative" />
			</parameterset>
			<parameterset type="activityParams" >
				<param name="activityType" value="education" />
				<param name="closingTime" value="undefined" />
				<param name="earliestEndTime" value="undefined" />
				<param name="latestStartTime" value="undefined" />
				<param name="minimalDuration" value="undefined" />
				<param name="openingTime" value="undefined" />
				<param name="priority" value="1.0" />
				<param name="scoringThisActivityAtAll" value="false" />
				<param name="typicalDuration" value="undefined" />
				<param name="typicalDurationScoreComputation" value="relative" />
			</parameterset>
			<parameterset type="activityParams" >
				<param name="activityType" value="shop" />
				<param name="closingTime" value="undefined" />
				<param name="earliestEndTime" value="undefined" />
				<param name="latestStartTime" value="undefined" />
				<param name="minimalDuration" value="undefined" />
				<param name="openingTime" value="undefined" />
				<param name="priority" value="1.0" />
				<param name="scoringThisActivityAtAll" value="false" />
				<param name="typicalDuration" value="undefined" />
				<param name="typicalDurationScoreComputation" value="relative" />
			</parameterset>
			<parameterset type="activityParams" >
				<param name="activityType" value="leisure" />
				<param name="closingTime" value="undefined" />
				<param name="earliestEndTime" value="undefined" />
				<param name="latestStartTime" value="undefined" />
				<param name="minimalDuration" value="undefined" />
				<param name="openingTime" value="undefined" />
				<param name="priority" value="1.0" />
				<param name="scoringThisActivityAtAll" value="false" />
				<param name="typicalDuration" value="undefined" />
				<param name="typicalDurationScoreComputation" value="relative" />
			</parameterset>
			<parameterset type="activityParams" >
				<param name="activityType" value="other" />
				<param name="closingTime" value="undefined" />
				<param name="earliestEndTime" value="undefined" />
				<param name="latestStartTime" value="undefined" />
				<param name="minimalDuration" value="undefined" />
				<param name="openingTime" value="undefined" />
				<param name="priority" value="1.0" />
				<param name="scoringThisActivityAtAll" value="false" />
				<param name="typicalDuration" value="undefined" />
				<param name="typicalDurationScoreComputation" value="relative" />
			</parameterset>
			<parameterset type="activityParams" >
				<param name="activityType" value="freight_loading" />
				<param name="closingTime" value="undefined" />
				<param name="earliestEndTime" value="undefined" />
				<param name="latestStartTime" value="undefined" />
				<param name="minimalDuration" value="undefined" />
				<param name="openingTime" value="undefined" />
				<param name="priority" value="1.0" />
				<param name="scoringThisActivityAtAll" value="false" />
				<param name="typicalDuration" value="undefined" />
				<param name="typicalDurationScoreComputation" value="relative" />
			</parameterset>
			<parameterset type="activityParams" >
				<param name="activityType" value="freight_unloading" />
				<param name="closingTime" value="undefined" />
				<param name="earliestEndTime" value="undefined" />
				<param name="latestStartTime" value="undefined" />
				<param name="minimalDuration" value="undefined" />
				<param name="openingTime" value="undefined" />
				<param name="priority" value="1.0" />
				<param name="scoringThisActivityAtAll" value="false" />
				<param name="typicalDuration" value="undefined" />
				<param name="typicalDurationScoreComputation" value="relative" />
			</parameterset>
			<parameterset type="activityParams" >
				<param name="activityType" value="outside" />
				<param name="closingTime" value="undefined" />
				<param name="earliestEndTime" value="undefined" />
				<param name="latestStartTime" value="undefined" />
				<param name="minimalDuration" value="undefined" />
				<param name="openingTime" value="undefined" />
				<param name="priority" value="1.0" />
				<param name="scoringThisActivityAtAll" value="false" />
				<param name="typicalDuration" value="undefined" />
				<param name="typicalDurationScoreComputation" value="relative" />
			</parameterset>
			<parameterset type="activityParams" >
				<param name="activityType" value="car_passenger interaction" />
				<param name="closingTime" value="undefined" />
				<param name="earliestEndTime" value="undefined" />
				<param name="latestStartTime" value="undefined" />
				<param name="minimalDuration" value="undefined" />
				<param name="openingTime" value="undefined" />
				<param name="priority" value="1.0" />
				<param name="scoringThisActivityAtAll" value="false" />
				<param name="typicalDuration" value="undefined" />
				<param name="typicalDurationScoreComputation" value="relative" />
			</parameterset>
			<parameterset type="activityParams" >
				<param name="activityType" value="truck interaction" />
				<param name="closingTime" value="undefined" />
				<param name="earliestEndTime" value="undefined" />
				<param name="latestStartTime" value="undefined" />
				<param name="minimalDuration" value="undefined" />
				<param name="openingTime" value="undefined" />
				<param name="priority" value="1.0" />
				<param name="scoringThisActivityAtAll" value="false" />
				<param name="typicalDuration" value="undefined" />
				<param name="typicalDurationScoreComputation" value="relative" />
			</parameterset>
			<parameterset type="activityParams" >
				<param name="activityType" value="ride interaction" />
				<param name="closingTime" value="undefined" />
				<param name="earliestEndTime" value="undefined" />
				<param name="latestStartTime" value="undefined" />
				<param name="minimalDuration" value="undefined" />
				<param name="openingTime" value="undefined" />
				<param name="priority" value="1.0" />
				<param name="scoringThisActivityAtAll" value="false" />
				<param name="typicalDuration" value="undefined" />
				<param name="typicalDurationScoreComputation" value="relative" />
			</parameterset>
			<parameterset type="activityParams" >
				<param name="activityType" value="outside interaction" />
				<param name="closingTime" value="undefined" />
				<param name="earliestEndTime" value="undefined" />
				<param name="latestStartTime" value="undefined" />
				<param name="minimalDuration" value="undefined" />
				<param name="openingTime" value="undefined" />
				<param name="priority" value="1.0" />
				<param name="scoringThisActivityAtAll" value="false" />
				<param name="typicalDuration" value="undefined" />
				<param name="typicalDurationScoreComputation" value="relative" />
			</parameterset>
			<parameterset type="modeParams" >
				<!-- [utils] alternative-specific constant.  Normally per trip, but that is probably buggy for multi-leg trips. -->
				<param name="constant" value="0.0" />
				<!-- [unit_of_money/day] Fixed cost of mode, per day. -->
				<param name="dailyMonetaryConstant" value="0.0" />
				<!-- [utils] daily utility constant. default=0 to be backwards compatible -->
				<param name="dailyUtilityConstant" value="0.0" />
				<!-- [utils/m] utility of traveling (e.g. walking or driving) per m, normally negative.  this is on top of the time (dis)utility. -->
				<param name="marginalUtilityOfDistance_util_m" value="0.0" />
				<!-- [utils/hr] additional marginal utility of traveling.  normally negative.  this comes on top of the opportunity cost of time -->
				<param name="marginalUtilityOfTraveling_util_hr" value="-1.0" />
				<param name="mode" value="car" />
				<!-- [unit_of_money/m] conversion of distance into money. Normally negative. -->
				<param name="monetaryDistanceRate" value="0.0" />
			</parameterset>
			<parameterset type="modeParams" >
				<param name="constant" value="0.0" />
				<param name="dailyMonetaryConstant" value="0.0" />
				<param name="dailyUtilityConstant" value="0.0" />
				<param name="marginalUtilityOfDistance_util_m" value="0.0" />
				<param name="marginalUtilityOfTraveling_util_hr" value="-1.0" />
				<param name="mode" value="pt" />
				<param name="monetaryDistanceRate" value="0.0" />
			</parameterset>
			<parameterset type="modeParams" >
				<param name="constant" value="0.0" />
				<param name="dailyMonetaryConstant" value="0.0" />
				<param name="dailyUtilityConstant" value="0.0" />
				<param name="marginalUtilityOfDistance_util_m" value="0.0" />
				<param name="marginalUtilityOfTraveling_util_hr" value="-1.0" />
				<param name="mode" value="walk" />
				<param name="monetaryDistanceRate" value="0.0" />
			</parameterset>
			<parameterset type="modeParams" >
				<param name="constant" value="0.0" />
				<param name="dailyMonetaryConstant" value="0.0" />
				<param name="dailyUtilityConstant" value="0.0" />
				<param name="marginalUtilityOfDistance_util_m" value="0.0" />
				<param name="marginalUtilityOfTraveling_util_hr" value="-1.0" />
				<param name="mode" value="bike" />
				<param name="monetaryDistanceRate" value="0.0" />
			</parameterset>
			<parameterset type="modeParams" >
				<param name="constant" value="0.0" />
				<param name="dailyMonetaryConstant" value="0.0" />
				<param name="dailyUtilityConstant" value="0.0" />
				<param name="marginalUtilityOfDistance_util_m" value="0.0" />
				<param name="marginalUtilityOfTraveling_util_hr" value="-6.0" />
				<param name="mode" value="ride" />
				<param name="monetaryDistanceRate" value="0.0" />
			</parameterset>
			<parameterset type="modeParams" >
				<param name="constant" value="0.0" />
				<param name="dailyMonetaryConstant" value="0.0" />
				<param name="dailyUtilityConstant" value="0.0" />
				<param name="marginalUtilityOfDistance_util_m" value="0.0" />
				<param name="marginalUtilityOfTraveling_util_hr" value="-6.0" />
				<param name="mode" value="other" />
				<param name="monetaryDistanceRate" value="0.0" />
			</parameterset>
			<parameterset type="modeParams" >
				<param name="constant" value="0.0" />
				<param name="dailyMonetaryConstant" value="0.0" />
				<param name="dailyUtilityConstant" value="0.0" />
				<param name="marginalUtilityOfDistance_util_m" value="0.0" />
				<param name="marginalUtilityOfTraveling_util_hr" value="-1.0" />
				<param name="mode" value="car_passenger" />
				<param name="monetaryDistanceRate" value="0.0" />
			</parameterset>
			<parameterset type="modeParams" >
				<param name="constant" value="0.0" />
				<param name="dailyMonetaryConstant" value="0.0" />
				<param name="dailyUtilityConstant" value="0.0" />
				<param name="marginalUtilityOfDistance_util_m" value="0.0" />
				<param name="marginalUtilityOfTraveling_util_hr" value="-1.0" />
				<param name="mode" value="truck" />
				<param name="monetaryDistanceRate" value="0.0" />
			</parameterset>
			<parameterset type="modeParams" >
				<param name="constant" value="0.0" />
				<param name="dailyMonetaryConstant" value="0.0" />
				<param name="dailyUtilityConstant" value="0.0" />
				<param name="marginalUtilityOfDistance_util_m" value="0.0" />
				<param name="marginalUtilityOfTraveling_util_hr" value="-1.0" />
				<param name="mode" value="outside" />
				<param name="monetaryDistanceRate" value="0.0" />
			</parameterset>
		</parameterset>
	</module>
	<module name="plans" >
		<!-- String: minOfDurationAndEndTime tryEndTimeThenDuration endTimeOnly. Anything besides minOfDurationAndEndTime will internally use a different (simpler) version of the TimeAllocationMutator. -->
		<param name="activityDurationInterpretation" value="tryEndTimeThenDuration" />
		<!-- Possible values: reject,useMainModeIdentifier -->
		<param name="handlingOfPlansWithoutRoutingMode" value="reject" />
		<!-- The Coordinates Reference System in which the coordinates are expressed in the input file. At import, the coordinates will be converted to the coordinate system defined in "global", and willbe converted back at export. If not specified, no conversion happens. -->
		<param name="inputCRS" value="null" />
		<param name="inputPersonAttributesFile" value="null" />
		<param name="inputPlansFile" value="corsica_population.xml.gz" />
		<param name="insistingOnUsingDeprecatedPersonAttributeFile" value="false" />
		<!-- Defines how routes are stored in memory. Currently supported: LinkNetworkRoute, MediumCompressedNetworkRoute, HeavyCompressedNetworkRoute. -->
		<param name="networkRouteType" value="LinkNetworkRoute" />
		<!-- (not tested) will remove plan attributes that are presumably not used, such as activityStartTime. default=false. Use with Caution! -->
		<param name="removingUnnecessaryPlanAttributes" value="false" />
		<!-- Defines how departure times are interpreted in rerouting applications. If set to 'ignoreDelays', the departure time of a trip when routing along a plan will always be the nominal (plan-based) activity end time. If set to 'shiftActivityEndTimes', routing along a plan will accumulate travel times and shift activity end times if necessary -->
		<param name="tripDurationHandling" value="ignoreDelays" />
	</module>
	<module name="planscalcroute" >
		<!-- Defines how access and egress to main mode is simulated. Either of [none, accessEgressModeToLink, walkConstantTimeToLink, accessEgressModeToLinkPlusTimeConstant], Current default=none which means no access or egress trips are simulated. -->
		<param name="accessEgressType" value="none" />
		<!-- Some typical teleportation routing params are set by default, such as for walk and bike.  Setting this switch to "true" will clear them.  Note that this will also clear settings for helper modes such as for non_network_walk -->
		<param name="clearDefaultTeleportedModeParams" value="false" />
		<!-- All the modes for which the router is supposed to generate network routes (like car) -->
		<param name="networkModes" value="car,car_passenger,truck" />
		<!-- strength of the randomness for the utility of money in routing under toll.  Leads to Pareto-optimal route with randomly drawn money-vs-other-attributes tradeoff. Technically the width parameter of a log-normal distribution. 3.0 seems to be a good value.  -->
		<param name="routingRandomness" value="0.0" />
		<parameterset type="teleportedModeParameters" >
			<param name="beelineDistanceFactor" value="1.0" />
			<param name="mode" value="outside" />
			<!-- Free-speed factor for a teleported mode. Travel time = teleportedModeFreespeedFactor * <freespeed car travel time>. Insert a line like this for every such mode. Please do not set teleportedModeFreespeedFactor as well as teleportedModeSpeed for the same mode, but if you do, +teleportedModeFreespeedFactor wins over teleportedModeSpeed. -->
			<param name="teleportedModeFreespeedFactor" value="null" />
			<!-- Speed for a teleported mode. Travel time = (<beeline distance> * beelineDistanceFactor) / teleportedModeSpeed. Insert a line like this for every such mode. -->
			<param name="teleportedModeSpeed" value="1000.0" />
		</parameterset>
		<parameterset type="teleportedModeParameters" >
			<param name="beelineDistanceFactor" value="1.4" />
			<param name="mode" value="bike" />
			<param name="teleportedModeFreespeedFactor" value="null" />
			<param name="teleportedModeSpeed" value="3.1" />
		</parameterset>
		<parameterset type="teleportedModeParameters" >
			<param name="beelineDistanceFactor" value="1.3" />
			<param name="mode" value="walk" />
			<param name="teleportedModeFreespeedFactor" value="null" />
			<param name="teleportedModeSpeed" value="1.2" />
		</parameterset>
	</module>
	<module name="ptCounts" >
		<!-- factor by which to re-scale the simulated values.  necessary when simulation runs with something different from 100%.  needs to be adapted manually -->
		<param name="countsScaleFactor" value="1.0" />
		<!-- distance to distanceFilterCenterNode to include counting stations. The unit of distance is the Euclidean distance implied by the coordinate system -->
		<param name="distanceFilter" value="null" />
		<!-- node id for center node of distance filter -->
		<param name="distanceFilterCenterNode" value="null" />
		<!-- input file containing the alighting (getting off) counts for pt -->
		<param name="inputAlightCountsFile" value="null" />
		<!-- input file containing the boarding (getting on) counts for pt -->
		<param name="inputBoardCountsFile" value="null" />
		<!-- input file containing the occupancy counts for pt -->
		<param name="inputOccupancyCountsFile" value="null" />
		<!-- possible values: `html', `txt', `all' -->
		<param name="outputformat" value="null" />
		<!-- every how many iterations (starting with 0) counts comparisons are generated -->
		<param name="ptCountsInterval" value="10" />
	</module>
	<module name="qsim" >
		<param name="endTime" value="30:00:00" />
		<!-- If set to withLinkAttributes snapshots will only be generated for links which include generateSnapshotForLink as attribute key. Default is no filtering. -->
		<param name="filterSnapshots" value="no" />
		<param name="flowCapacityFactor" value="1.0E9" />
		<!-- decides if waiting vehicles enter the network after or before the already driving vehicles were moved. Default: false -->
		<param name="insertingWaitingVehiclesBeforeDrivingVehicles" value="true" />
		<!-- If link dynamics is set as SeepageQ, set to false if all seep modes should perform seepage. Default is true (better option). -->
		<param name="isRestrictingSeepage" value="true" />
		<!-- If link dynamics is set as SeepageQ, set to true if seep mode do not consumes any space on the link. Default is false. -->
		<param name="isSeepModeStorageFree" value="false" />
		<!-- default: FIFO; options: FIFO PassingQ SeepageQ -->
		<param name="linkDynamics" value="FIFO" />
		<!-- The (initial) width of the links of the network. Use positive floating point values. This is used only for visualisation. -->
		<param name="linkWidth" value="30.0" />
		<!-- [comma-separated list] Defines which modes are congested modes. Technically, these are the modes that the departure handler of the netsimengine handles.  Effective cell size, effective lane width, flow capacity factor, and storage capacity factor need to be set with diligence.  Need to be vehicular modes to make sense. -->
		<param name="mainMode" value="" />
		<!-- Shortens a link in the visualization, i.e. its start and end point are moved into towards the center. Does not affect traffic flow.  -->
		<param name="nodeOffset" value="0.0" />
		<!-- Number of threads used for the QSim.  Note that this setting is independent from the "global" threads setting.  In contrast to earlier versions, the non-parallel special version is no longer there. -->
		<param name="numberOfThreads" value="12" />
		<!-- Boolean. `true': stuck vehicles are removed, aborting the plan; `false': stuck vehicles are forced into the next link. `false' is probably the better choice. -->
		<param name="removeStuckVehicles" value="false" />
		<!-- If link dynamics is set as SeepageQ, set a seep mode. Default is bike. -->
		<param name="seepMode" value="bike" />
		<!-- Possible values: minOfEndtimeAndMobsimFinished,onlyUseEndtime -->
		<param name="simEndtimeInterpretation" value="null" />
		<!-- Options: maxOfStarttimeAndEarliestActivityEnd onlyUseStarttime  -->
		<param name="simStarttimeInterpretation" value="maxOfStarttimeAndEarliestActivityEnd" />
		<!-- snapshotStyle. One of: equiDist queue withHoles withHolesAndShowHoles kinematicWaves  -->
		<param name="snapshotStyle" value="equiDist" />
		<param name="snapshotperiod" value="00:00:00" />
		<param name="startTime" value="undefined" />
		<param name="storageCapacityFactor" value="1.0E9" />
		<!-- time in seconds.  Time after which the frontmost vehicle on a link is called `stuck' if it does not move. -->
		<param name="stuckTime" value="10.0" />
		<param name="timeStepSize" value="00:00:01" />
		<!-- options: queue withHoles kinematicWaves  -->
		<param name="trafficDynamics" value="queue" />
		<!-- Set this parameter to true if lanes should be used, false if not. -->
		<param name="useLanes" value="false" />
		<!-- If a route does not reference a vehicle, agents will use the vehicle with the same id as their own. -->
		<param name="usePersonIdForMissingVehicleId" value="true" />
		<!-- If false, the qsim accumulates fractional flows up to one flow unit in every time step.  If true, flows are updated only if an agent wants to enter the link or an agent is added to buffer. Default is true. -->
		<param name="usingFastCapacityUpdate" value="true" />
		<!-- Defines what happens if an agent wants to depart, but the specified vehicle is not available. One of: teleport wait exception  -->
		<param name="vehicleBehavior" value="teleport" />
		<!-- If vehicles should all be the same default vehicle, or come from the vehicles file, or something else.  Possible values:  defaultVehicle modeVehicleTypesFromVehiclesData fromVehiclesData -->
		<param name="vehiclesSource" value="defaultVehicle" />
	</module>
	<module name="strategy" >
		<!-- the external executable will be called with a config file as argument.  This is the pathname to a possible skeleton config, to which additional information will be added.  Can be null. -->
		<param name="ExternalExeConfigTemplate" value="null" />
		<!-- time out value (in seconds) after which matsim will consider the external strategy as failed -->
		<param name="ExternalExeTimeOut" value="3600" />
		<!-- root directory for temporary files generated by the external executable. Provided as a service; I don't think this is used by MATSim. -->
		<param name="ExternalExeTmpFileRootDir" value="null" />
		<!-- fraction of iterations where innovative strategies are switched off.  Something like 0.8 should be good.  E.g. if you run from iteration 400 to iteration 500, innovation is switched off at iteration 480 -->
		<param name="fractionOfIterationsToDisableInnovation" value="Infinity" />
		<!-- maximum number of plans per agent.  ``0'' means ``infinity''.  Currently (2010), ``5'' is a good number -->
		<param name="maxAgentPlanMemorySize" value="1" />
		<!-- strategyName of PlanSelector for plans removal.  Possible defaults: WorstPlanSelector SelectRandom SelectExpBetaForRemoval ChangeExpBetaForRemoval PathSizeLogitSelectorForRemoval . The current default, WorstPlanSelector is not a good choice from a discrete choice theoretical perspective. Alternatives, however, have not been systematically tested. kai, feb'12 -->
		<param name="planSelectorForRemoval" value="NonSelectedPlanSelector" />
		<parameterset type="strategysettings" >
			<!-- iteration after which strategy will be disabled.  most useful for ``innovative'' strategies (new routes, new times, ...). Normally, better use fractionOfIterationsToDisableInnovation -->
			<param name="disableAfterIteration" value="-1" />
			<!-- path to external executable (if applicable) -->
			<param name="executionPath" value="null" />
			<!-- strategyName of strategy.  Possible default names: SelectRandom BestScore KeepLastSelected ChangeExpBeta SelectExpBeta SelectPathSizeLogit      (selectors), ReRouteTimeAllocationMutatorTimeAllocationMutator_ReRouteChangeSingleTripModeChangeTripModeSubtourModeChoice (innovative strategies). -->
			<param name="strategyName" value="DiscreteModeChoice" />
			<!-- subpopulation to which the strategy applies. "null" refers to the default population, that is, the set of persons for which no explicit subpopulation is defined (ie no subpopulation attribute) -->
			<param name="subpopulation" value="null" />
			<!-- weight of a strategy: for each agent, a strategy will be selected with a probability proportional to its weight -->
			<param name="weight" value="0.05" />
		</parameterset>
		<parameterset type="strategysettings" >
			<param name="disableAfterIteration" value="-1" />
			<param name="executionPath" value="null" />
			<param name="strategyName" value="KeepLastSelected" />
			<param name="subpopulation" value="null" />
			<param name="weight" value="0.95" />
		</parameterset>
	</module>
	<module name="subtourModeChoice" >
		<!-- Only for backwards compatibility.  Defines if only trips from modes list should change mode, or all trips.  Options: fromAllModesToSpecifiedModes fromSpecifiedModesToSpecifiedModes betweenAllAndFewerConstraints  -->
		<param name="behavior" value="fromSpecifiedModesToSpecifiedModes" />
		<!-- Defines the chain-based modes, seperated by commas -->
		<param name="chainBasedModes" value="car,bike" />
		<!-- Defines whether car availability must be considered or not. A agent has no car only if it has no license, or never access to a car -->
		<param name="considerCarAvailability" value="false" />
		<!-- If greater than 0, subtours will also consider coordinates to be at the same location when smaller than set distance. -->
		<param name="coordDistance" value="0.0" />
		<!-- Defines all the modes available, including chain-based modes, seperated by commas -->
		<param name="modes" value="car,pt,bike,walk" />
		<!-- Defines the probability of changing a single trip for a unchained mode instead of subtour. -->
		<param name="probaForRandomSingleTripMode" value="0.0" />
	</module>
	<module name="swissRailRaptor" >
		<!-- Sets whether intermodal access and egress modes are selected by least cost (default) or randomly chosen out of the available access / egress modes. -->
		<param name="intermodalAccessEgressModeSelection" value="CalcLeastCostModePerStop" />
		<!-- Possible values: Default,Individual -->
		<param name="scoringParameters" value="Default" />
		<param name="transferPenaltyBaseCost" value="0.0" />
		<param name="transferPenaltyCostPerTravelTimeHour" value="0.0" />
		<param name="transferPenaltyMaxCost" value="Infinity" />
		<param name="transferPenaltyMinCost" value="-Infinity" />
		<!-- time deducted from transfer walk leg during transfers between pt legs in order to avoid missing a vehicle by a few seconds due to delays. -->
		<param name="transferWalkMargin" value="5.0" />
		<!-- If true, SwissRailRaptor tries to detect when agents cannot board a vehicle in the previous iteration because it is already full and tries to find an alternative route instead. -->
		<param name="useCapacityConstraints" value="false" />
		<param name="useIntermodalAccessEgress" value="false" />
		<param name="useModeMappingForPassengers" value="false" />
		<param name="useRangeQuery" value="false" />
	</module>
	<module name="transit" >
		<!-- The Coordinates Reference System in which the coordinates are expressed in the input file. At import, the coordinates will be converted to the coordinate system defined in "global", and willbe converted back at export. If not specified, no conversion happens. -->
		<param name="inputScheduleCRS" value="null" />
		<param name="insistingOnUsingDeprecatedAttributeFiles" value="false" />
		<!-- The type of transit routing algorithm used, may have the values: [DijkstraBased, SwissRailRaptor] -->
		<param name="routingAlgorithmType" value="SwissRailRaptor" />
		<!-- Optional input file containing additional attributes for transit lines, stored as ObjectAttributes. -->
		<param name="transitLinesAttributesFile" value="null" />
		<!-- Comma-separated list of transportation modes that are handled as transit. Defaults to 'pt'. -->
		<param name="transitModes" value="pt" />
		<!-- Input file containing the transit schedule to be simulated. -->
		<param name="transitScheduleFile" value="corsica_transit_schedule.xml.gz" />
		<!-- Optional input file containing additional attributes for transit stop facilities, stored as ObjectAttributes. -->
		<param name="transitStopsAttributesFile" value="null" />
		<!-- Set this parameter to true if transit should be simulated, false if not. -->
		<param name="useTransit" value="true" />
		<param name="usingTransitInMobsim" value="true" />
		<!-- Input file containing the vehicles used by the departures in the transit schedule. -->
		<param name="vehiclesFile" value="corsica_transit_vehicles.xml.gz" />
	</module>
	<module name="transitRouter" >
		<!-- additional time the router allocates when a line switch happens. Can be interpreted as a 'safety' time that agents need to safely transfer from one line to another -->
		<param name="additionalTransferTime" value="0.0" />
		<!-- Factor with which direct walk generalized cost is multiplied before it is compared to the pt generalized cost.  Set to a very high value to reduce direct walk results. -->
		<param name="directWalkFactor" value="1.0" />
		<!-- step size to increase searchRadius if no stops are found -->
		<param name="extensionRadius" value="200.0" />
		<!-- maximum beeline distance between stops that agents could transfer to by walking -->
		<param name="maxBeelineWalkConnectionDistance" value="100.0" />
		<!-- the radius in which stop locations are searched, given a start or target coordinate -->
		<param name="searchRadius" value="1000.0" />
	</module>
	<module name="travelTimeCalculator" >
		<!-- (only for backwards compatibility; only used if separateModes==false && + filterModes==true)  Transport modes that will be respected by the travel time collector. 'car' is default which includes also buses from the pt simulation module. -->
		<param name="analyzedModes" value="car,truck,car_passenger" />
		<param name="calculateLinkToLinkTravelTimes" value="false" />
		<param name="calculateLinkTravelTimes" value="true" />
		<!-- (only for backwards compatiblity; only used if separateModes==false)  Only modes included in analyzedModes are included. -->
		<param name="filterModes" value="true" />
		<!-- The lenght (in sec) of the time period that is splited into time bins; an additional time bin is created to aggregate all travel times collected after maxTime -->
		<param name="maxTime" value="108000" />
		<!-- (only for backwards compatibility) If false, link travel times are measured and aggregated over all vehicles using the link. -->
		<param name="separateModes" value="false" />
		<!-- How to deal with congested time bins that have no link entry events. `optimistic' assumes free speed (too optimistic); 'experimental_LastMile' is experimental and probably too pessimistic. -->
		<param name="travelTimeAggregator" value="optimistic" />
		<!-- The size of the time bin (in sec) into which the link travel times are aggregated for the router -->
		<param name="travelTimeBinSize" value="900" />
		<!-- possible values: TravelTimeCalculatorArray TravelTimeCalculatorHashMap  -->
		<param name="travelTimeCalculator" value="TravelTimeCalculatorArray" />
		<!-- How to deal with link entry times at different positions during the time bin. Currently supported: average, linearinterpolation -->
		<param name="travelTimeGetter" value="average" />
	</module>
	<module name="vehicles" >
		<param name="vehiclesFile" value="null" />
	</module>
	<module name="vspExperimental" >
		<!-- (do not use except of you have to) There was a problem with pt interaction scoring.  Some people solved it by overwriting the parameters of the pt interaction activity type.  Doing this now throws an Exception.  If you still insist on doing this, set the following to true. -->
		<param name="isAbleToOverwritePtInteractionParams" value="false" />
		<param name="isGeneratingBoardingDeniedEvent" value="false" />
		<!-- if an approximation of the opportunity cost of time is included into the radius calculation for location choice.`true' will be faster, but it is an approximation.  Default is `true'; `false' is available for backwards compatibility. -->
		<param name="isUsingOpportunityCostOfTimeForLocationChoice" value="true" />
		<param name="logitScaleParamForPlansRemoval" value="1.0" />
		<!-- Options: | ignore | info | warn | abort | .  When violating VSP defaults, this results in nothing, logfile infos, logfile warnings, or aborts.  Members of VSP should use `abort' or talk to kai. -->
		<param name="vspDefaultsCheckingLevel" value="ignore" />
		<!-- if true then writes output_events in output directory.  default is `false'. Will only work when lastIteration is multiple of events writing interval -->
		<param name="writingOutputEvents" value="true" />
	</module>

</config>

2024-04-09T17:05:26,817  INFO ControlerUtils:85 Complete config dump done.
2024-04-09T17:05:26,817  INFO ControlerUtils:86 Checking consistency of config...
2024-04-09T17:05:26,817  INFO PlanCalcScoreConfigGroup$ScoringParameterSet:1555 NO OPENING OR CLOSING TIMES DEFINED!

There is no activity type that has an opening *and* closing time (or opening time and late penalty) defined.
This usually means that the activity chains can be shifted by an arbitrary
number of hours without having an effect on the score of the plans, and thus
resulting in wrong results / traffic patterns.
If you are using MATSim without time adaptation, you can ignore this warning.


2024-04-09T17:05:26,817  INFO VspConfigConsistencyCheckerImpl:64 NOT running vsp config consistency check because vsp defaults checking level is set to IGNORE
2024-04-09T17:05:26,818  INFO ControlerUtils:88 Checking consistency of config done.
2024-04-09T17:05:26,818  INFO PrepareForSimImpl:122 Network seems to be multimodal. Create car-only network which is handed over to PersonPrepareForSim.
2024-04-09T17:05:26,818  INFO NetworkImpl:165  node # 1
2024-04-09T17:05:26,818  INFO NetworkImpl:165  node # 4
2024-04-09T17:05:26,818  INFO NetworkImpl:165  node # 16
2024-04-09T17:05:26,818  INFO NetworkImpl:165  node # 64
2024-04-09T17:05:26,818  INFO NetworkImpl:165  node # 256
2024-04-09T17:05:26,818  INFO NetworkImpl:165  node # 1024
2024-04-09T17:05:26,818  INFO NetworkImpl:165  node # 4096
2024-04-09T17:05:26,818  INFO NetworkImpl:165  node # 16384
2024-04-09T17:05:26,818  INFO NetworkImpl:161  link # 1
2024-04-09T17:05:26,818  INFO NetworkImpl:161  link # 4
2024-04-09T17:05:26,818  INFO NetworkImpl:161  link # 16
2024-04-09T17:05:26,818  INFO NetworkImpl:161  link # 64
2024-04-09T17:05:26,818  INFO NetworkImpl:161  link # 256
2024-04-09T17:05:26,818  INFO NetworkImpl:161  link # 1024
2024-04-09T17:05:26,834  INFO NetworkImpl:161  link # 4096
2024-04-09T17:05:26,851  INFO NetworkImpl:161  link # 16384
2024-04-09T17:05:26,901  INFO Counter:70 [VehiclesImpl] added vehicle # 1
2024-04-09T17:05:26,901  INFO Counter:70 [VehiclesImpl] added vehicle # 2
2024-04-09T17:05:26,901  INFO Counter:70 [VehiclesImpl] added vehicle # 4
2024-04-09T17:05:26,901  INFO Counter:70 [VehiclesImpl] added vehicle # 8
2024-04-09T17:05:26,901  INFO Counter:70 [VehiclesImpl] added vehicle # 16
2024-04-09T17:05:26,901  INFO Counter:70 [VehiclesImpl] added vehicle # 32
2024-04-09T17:05:26,901  INFO Counter:70 [VehiclesImpl] added vehicle # 64
2024-04-09T17:05:26,901  INFO Counter:70 [VehiclesImpl] added vehicle # 128
2024-04-09T17:05:26,901  INFO Counter:70 [VehiclesImpl] added vehicle # 256
2024-04-09T17:05:26,901  INFO Counter:70 [VehiclesImpl] added vehicle # 512
2024-04-09T17:05:26,901  INFO Counter:70 [VehiclesImpl] added vehicle # 1024
2024-04-09T17:05:26,918  INFO EventsManagerImpl:138 adding Event-Handler: ch.sbb.matsim.routing.pt.raptor.SwissRailRaptorFactory$$Lambda$331/0x00000243303ea040
2024-04-09T17:05:26,918  INFO EventsManagerImpl:144   org.matsim.pt.router.TransitScheduleChangedEventHandler
2024-04-09T17:05:26,918  INFO EventsManagerImpl:205     > org.matsim.pt.router.TransitScheduleChangedEvent
2024-04-09T17:05:26,918  INFO EventsManagerImpl:154 
2024-04-09T17:05:26,918  INFO EventsManagerImpl:138 adding Event-Handler: ch.sbb.matsim.routing.pt.raptor.SwissRailRaptorFactory$$Lambda$331/0x00000243303ea040
2024-04-09T17:05:26,918  INFO EventsManagerImpl:144   org.matsim.pt.router.TransitScheduleChangedEventHandler
2024-04-09T17:05:26,918  INFO EventsManagerImpl:205     > org.matsim.pt.router.TransitScheduleChangedEvent
2024-04-09T17:05:26,918  INFO EventsManagerImpl:154 
2024-04-09T17:05:26,918  INFO SwissRailRaptorData:85 Preparing data for SwissRailRaptor...
2024-04-09T17:05:26,918  INFO SwissRailRaptorData:212 SwissRailRaptor data preparation done. Took 0 seconds.
2024-04-09T17:05:26,918  INFO SwissRailRaptorData:213 SwissRailRaptor statistics:  #routes = 45
2024-04-09T17:05:26,918  INFO SwissRailRaptorData:214 SwissRailRaptor statistics:  #departures = 83
2024-04-09T17:05:26,918  INFO SwissRailRaptorData:215 SwissRailRaptor statistics:  #routeStops = 362
2024-04-09T17:05:26,918  INFO SwissRailRaptorData:216 SwissRailRaptor statistics:  #stopFacilities = 198
2024-04-09T17:05:26,918  INFO SwissRailRaptorData:217 SwissRailRaptor statistics:  #transfers (between routeStops) = 360
2024-04-09T17:05:26,918  INFO NetworkImpl:165  node # 1
2024-04-09T17:05:26,918  INFO NetworkImpl:165  node # 4
2024-04-09T17:05:26,918  INFO NetworkImpl:165  node # 16
2024-04-09T17:05:26,918  INFO NetworkImpl:165  node # 64
2024-04-09T17:05:26,918  INFO NetworkImpl:165  node # 256
2024-04-09T17:05:26,918  INFO NetworkImpl:165  node # 1024
2024-04-09T17:05:26,918  INFO NetworkImpl:165  node # 4096
2024-04-09T17:05:26,918  INFO NetworkImpl:165  node # 16384
2024-04-09T17:05:26,934  INFO NetworkImpl:161  link # 1
2024-04-09T17:05:26,934  INFO NetworkImpl:161  link # 4
2024-04-09T17:05:26,934  INFO NetworkImpl:161  link # 16
2024-04-09T17:05:26,934  INFO NetworkImpl:161  link # 64
2024-04-09T17:05:26,934  INFO NetworkImpl:161  link # 256
2024-04-09T17:05:26,935  INFO NetworkImpl:161  link # 1024
2024-04-09T17:05:26,935  INFO NetworkImpl:161  link # 4096
2024-04-09T17:05:26,935  INFO NetworkImpl:161  link # 16384
2024-04-09T17:05:27,083  INFO PreProcessDijkstra:119 nodes in dead ends: 10067 (total nodes: 31333). Done in 49 ms
2024-04-09T17:05:27,101  INFO PreProcessLandmarks:113 Putting landmarks on network...
2024-04-09T17:05:27,101  INFO LandmarkerPieSlices:97 Filling sectors...
2024-04-09T17:05:27,134  INFO LandmarkerPieSlices:108 Refining landmarks...
2024-04-09T17:05:27,134  INFO LandmarkerPieSlices:110 done
2024-04-09T17:05:27,134  INFO PreProcessLandmarks:116 done in 33 ms
2024-04-09T17:05:27,134  INFO PreProcessLandmarks:118 Initializing landmarks data
2024-04-09T17:05:27,151  INFO PreProcessLandmarks:130 Calculating distance from each node to each of the 16 landmarks using 12 threads...
2024-04-09T17:05:27,151  INFO PreProcessLandmarks:140 wait for landmarks Calculator to finish...
2024-04-09T17:05:27,484  INFO PreProcessLandmarks:164 done in 333 ms
2024-04-09T17:05:27,484  INFO NetworkImpl:165  node # 1
2024-04-09T17:05:27,484  INFO NetworkImpl:165  node # 4
2024-04-09T17:05:27,484  INFO NetworkImpl:165  node # 16
2024-04-09T17:05:27,484  INFO NetworkImpl:165  node # 64
2024-04-09T17:05:27,484  INFO NetworkImpl:165  node # 256
2024-04-09T17:05:27,484  INFO NetworkImpl:165  node # 1024
2024-04-09T17:05:27,484  INFO NetworkImpl:165  node # 4096
2024-04-09T17:05:27,484  INFO NetworkImpl:165  node # 16384
2024-04-09T17:05:27,518  INFO PreProcessDijkstra:119 nodes in dead ends: 0 (total nodes: 0). Done in 0 ms
2024-04-09T17:05:27,518  INFO PreProcessLandmarks:113 Putting landmarks on network...
2024-04-09T17:05:27,518  INFO LandmarkerPieSlices:97 Filling sectors...
2024-04-09T17:05:27,518  INFO LandmarkerPieSlices:101 Reducing number of landmarks from 16 to 0...
2024-04-09T17:05:27,518  INFO LandmarkerPieSlices:108 Refining landmarks...
2024-04-09T17:05:27,518  INFO LandmarkerPieSlices:110 done
2024-04-09T17:05:27,518  INFO PreProcessLandmarks:116 done in 0 ms
2024-04-09T17:05:27,518  INFO PreProcessLandmarks:118 Initializing landmarks data
2024-04-09T17:05:27,518  INFO PreProcessLandmarks:130 Calculating distance from each node to each of the 16 landmarks using 2 threads...
2024-04-09T17:05:27,518  INFO PreProcessLandmarks:164 done in 0 ms
2024-04-09T17:05:27,518  INFO NetworkImpl:165  node # 1
2024-04-09T17:05:27,518  INFO NetworkImpl:165  node # 4
2024-04-09T17:05:27,533  INFO NetworkImpl:165  node # 16
2024-04-09T17:05:27,533  INFO NetworkImpl:165  node # 64
2024-04-09T17:05:27,533  INFO NetworkImpl:165  node # 256
2024-04-09T17:05:27,533  INFO NetworkImpl:165  node # 1024
2024-04-09T17:05:27,534  INFO NetworkImpl:165  node # 4096
2024-04-09T17:05:27,534  INFO NetworkImpl:165  node # 16384
2024-04-09T17:05:27,534  INFO NetworkImpl:161  link # 1
2024-04-09T17:05:27,534  INFO NetworkImpl:161  link # 4
2024-04-09T17:05:27,534  INFO NetworkImpl:161  link # 16
2024-04-09T17:05:27,534  INFO NetworkImpl:161  link # 64
2024-04-09T17:05:27,534  INFO NetworkImpl:161  link # 256
2024-04-09T17:05:27,534  INFO NetworkImpl:161  link # 1024
2024-04-09T17:05:27,534  INFO NetworkImpl:161  link # 4096
2024-04-09T17:05:27,551  INFO NetworkImpl:161  link # 16384
2024-04-09T17:05:27,751  INFO PreProcessDijkstra:119 nodes in dead ends: 10067 (total nodes: 31333). Done in 100 ms
2024-04-09T17:05:27,751  INFO PreProcessLandmarks:113 Putting landmarks on network...
2024-04-09T17:05:27,768  INFO LandmarkerPieSlices:97 Filling sectors...
2024-04-09T17:05:27,801  INFO LandmarkerPieSlices:108 Refining landmarks...
2024-04-09T17:05:27,818  INFO LandmarkerPieSlices:110 done
2024-04-09T17:05:27,818  INFO PreProcessLandmarks:116 done in 51 ms
2024-04-09T17:05:27,818  INFO PreProcessLandmarks:118 Initializing landmarks data
2024-04-09T17:05:27,834  INFO PreProcessLandmarks:130 Calculating distance from each node to each of the 16 landmarks using 12 threads...
2024-04-09T17:05:27,834  INFO PreProcessLandmarks:140 wait for landmarks Calculator to finish...
2024-04-09T17:05:28,035  INFO PreProcessLandmarks:164 done in 201 ms
2024-04-09T17:05:28,068  INFO Counter:70 [PersonPrepareForSim] handled person # 4
2024-04-09T17:05:28,068  INFO Counter:70 [PersonPrepareForSim] handled person # 2
2024-04-09T17:05:28,068  INFO Counter:70 [PersonPrepareForSim] handled person # 8
2024-04-09T17:05:28,081  INFO Counter:70 [PersonPrepareForSim] handled person # 16
2024-04-09T17:05:28,082  INFO Counter:70 [PersonPrepareForSim] handled person # 128
2024-04-09T17:05:28,068  INFO Counter:70 [PersonPrepareForSim] handled person # 1
2024-04-09T17:05:28,082  INFO Counter:70 [PersonPrepareForSim] handled person # 64
2024-04-09T17:05:28,082  INFO Counter:70 [PersonPrepareForSim] handled person # 32
2024-04-09T17:05:28,082  INFO Counter:70 [PersonPrepareForSim] handled person # 256
2024-04-09T17:05:28,082  INFO Counter:75 [PersonPrepareForSim] handled person # 389
2024-04-09T17:05:28,084  INFO AbstractController:134 ###################################################
2024-04-09T17:05:28,084  INFO AbstractController:135 ### ITERATION 0 BEGINS
2024-04-09T17:05:28,084  INFO ControlerListenerManagerImpl:146 calling notifyIterationStarts on org.matsim.analysis.LegHistogramListener
2024-04-09T17:05:28,084  INFO ControlerListenerManagerImpl:146 calling notifyIterationStarts on org.matsim.analysis.LinkStatsControlerListener
2024-04-09T17:05:28,084  INFO ControlerListenerManagerImpl:146 calling notifyIterationStarts on org.eqasim.core.simulation.analysis.stuck.StuckAnalysisListener
2024-04-09T17:05:28,084  INFO EventsManagerImpl:138 adding Event-Handler: org.eqasim.core.simulation.analysis.stuck.StuckAnalysisHandler
2024-04-09T17:05:28,084  INFO EventsManagerImpl:144   org.matsim.api.core.v01.events.handler.PersonStuckEventHandler
2024-04-09T17:05:28,084  INFO EventsManagerImpl:205     > org.matsim.api.core.v01.events.PersonStuckEvent
2024-04-09T17:05:28,084  INFO EventsManagerImpl:154 
2024-04-09T17:05:28,084  INFO EventsManagerImpl:138 adding Event-Handler: org.eqasim.core.simulation.analysis.stuck.StuckAnalysisHandler
2024-04-09T17:05:28,084  INFO EventsManagerImpl:144   org.matsim.api.core.v01.events.handler.PersonStuckEventHandler
2024-04-09T17:05:28,084  INFO EventsManagerImpl:205     > org.matsim.api.core.v01.events.PersonStuckEvent
2024-04-09T17:05:28,084  INFO EventsManagerImpl:154 
2024-04-09T17:05:28,084  INFO ControlerListenerManagerImpl:146 calling notifyIterationStarts on org.eqasim.core.simulation.analysis.AnalysisOutputListener
2024-04-09T17:05:28,084  INFO EventsManagerImpl:138 adding Event-Handler: org.eqasim.core.analysis.trips.TripListener
2024-04-09T17:05:28,084  INFO EventsManagerImpl:144   org.matsim.api.core.v01.events.handler.ActivityStartEventHandler
2024-04-09T17:05:28,084  INFO EventsManagerImpl:205     > org.matsim.api.core.v01.events.ActivityStartEvent
2024-04-09T17:05:28,084  INFO EventsManagerImpl:144   org.matsim.api.core.v01.events.handler.ActivityEndEventHandler
2024-04-09T17:05:28,084  INFO EventsManagerImpl:205     > org.matsim.api.core.v01.events.ActivityEndEvent
2024-04-09T17:05:28,084  INFO EventsManagerImpl:144   org.matsim.api.core.v01.events.handler.PersonDepartureEventHandler
2024-04-09T17:05:28,084  INFO EventsManagerImpl:205     > org.matsim.api.core.v01.events.PersonDepartureEvent
2024-04-09T17:05:28,084  INFO EventsManagerImpl:144   org.matsim.api.core.v01.events.handler.PersonEntersVehicleEventHandler
2024-04-09T17:05:28,084  INFO EventsManagerImpl:205     > org.matsim.api.core.v01.events.PersonEntersVehicleEvent
2024-04-09T17:05:28,084  INFO EventsManagerImpl:144   org.matsim.api.core.v01.events.handler.PersonLeavesVehicleEventHandler
2024-04-09T17:05:28,084  INFO EventsManagerImpl:205     > org.matsim.api.core.v01.events.PersonLeavesVehicleEvent
2024-04-09T17:05:28,084  INFO EventsManagerImpl:144   org.matsim.api.core.v01.events.handler.LinkEnterEventHandler
2024-04-09T17:05:28,084  INFO EventsManagerImpl:205     > org.matsim.api.core.v01.events.LinkEnterEvent
2024-04-09T17:05:28,084  INFO EventsManagerImpl:144   org.matsim.core.api.experimental.events.handler.TeleportationArrivalEventHandler
2024-04-09T17:05:28,084  INFO EventsManagerImpl:205     > org.matsim.core.api.experimental.events.TeleportationArrivalEvent
2024-04-09T17:05:28,084  INFO EventsManagerImpl:144   org.matsim.api.core.v01.events.handler.GenericEventHandler
2024-04-09T17:05:28,084  INFO EventsManagerImpl:205     > org.matsim.api.core.v01.events.GenericEvent
2024-04-09T17:05:28,084  INFO EventsManagerImpl:154 
2024-04-09T17:05:28,084  INFO EventsManagerImpl:138 adding Event-Handler: org.eqasim.core.analysis.trips.TripListener
2024-04-09T17:05:28,084  INFO EventsManagerImpl:144   org.matsim.api.core.v01.events.handler.ActivityStartEventHandler
2024-04-09T17:05:28,084  INFO EventsManagerImpl:205     > org.matsim.api.core.v01.events.ActivityStartEvent
2024-04-09T17:05:28,084  INFO EventsManagerImpl:144   org.matsim.api.core.v01.events.handler.ActivityEndEventHandler
2024-04-09T17:05:28,084  INFO EventsManagerImpl:205     > org.matsim.api.core.v01.events.ActivityEndEvent
2024-04-09T17:05:28,084  INFO EventsManagerImpl:144   org.matsim.api.core.v01.events.handler.PersonDepartureEventHandler
2024-04-09T17:05:28,084  INFO EventsManagerImpl:205     > org.matsim.api.core.v01.events.PersonDepartureEvent
2024-04-09T17:05:28,084  INFO EventsManagerImpl:144   org.matsim.api.core.v01.events.handler.PersonEntersVehicleEventHandler
2024-04-09T17:05:28,084  INFO EventsManagerImpl:205     > org.matsim.api.core.v01.events.PersonEntersVehicleEvent
2024-04-09T17:05:28,084  INFO EventsManagerImpl:144   org.matsim.api.core.v01.events.handler.PersonLeavesVehicleEventHandler
2024-04-09T17:05:28,084  INFO EventsManagerImpl:205     > org.matsim.api.core.v01.events.PersonLeavesVehicleEvent
2024-04-09T17:05:28,084  INFO EventsManagerImpl:144   org.matsim.api.core.v01.events.handler.LinkEnterEventHandler
2024-04-09T17:05:28,084  INFO EventsManagerImpl:205     > org.matsim.api.core.v01.events.LinkEnterEvent
2024-04-09T17:05:28,084  INFO EventsManagerImpl:144   org.matsim.core.api.experimental.events.handler.TeleportationArrivalEventHandler
2024-04-09T17:05:28,084  INFO EventsManagerImpl:205     > org.matsim.core.api.experimental.events.TeleportationArrivalEvent
2024-04-09T17:05:28,084  INFO EventsManagerImpl:144   org.matsim.api.core.v01.events.handler.GenericEventHandler
2024-04-09T17:05:28,084  INFO EventsManagerImpl:205     > org.matsim.api.core.v01.events.GenericEvent
2024-04-09T17:05:28,084  INFO EventsManagerImpl:154 
2024-04-09T17:05:28,084  INFO EventsManagerImpl:138 adding Event-Handler: org.eqasim.core.analysis.legs.LegListener
2024-04-09T17:05:28,084  INFO EventsManagerImpl:144   org.matsim.api.core.v01.events.handler.ActivityStartEventHandler
2024-04-09T17:05:28,084  INFO EventsManagerImpl:205     > org.matsim.api.core.v01.events.ActivityStartEvent
2024-04-09T17:05:28,084  INFO EventsManagerImpl:144   org.matsim.api.core.v01.events.handler.ActivityEndEventHandler
2024-04-09T17:05:28,084  INFO EventsManagerImpl:205     > org.matsim.api.core.v01.events.ActivityEndEvent
2024-04-09T17:05:28,084  INFO EventsManagerImpl:144   org.matsim.api.core.v01.events.handler.PersonDepartureEventHandler
2024-04-09T17:05:28,084  INFO EventsManagerImpl:205     > org.matsim.api.core.v01.events.PersonDepartureEvent
[...]
2024-04-09T17:05:56,584  INFO AbstractQNetsimEngine:366 SIMULATION (QNetsimEngine) AT 12:00:00 : #links=0 #nodes=0
2024-04-09T17:05:56,584  INFO QSim:566 SIMULATION (NEW QSim) AT 12:00:00 : #Veh=343 lost=0 simT=21329.0s realT=1s; (s/r): 21329.0
2024-04-09T17:05:56,734  INFO AbstractQNetsimEngine:366 SIMULATION (QNetsimEngine) AT 13:00:00 : #links=0 #nodes=0
2024-04-09T17:05:56,734  INFO QSim:566 SIMULATION (NEW QSim) AT 13:00:00 : #Veh=340 lost=0 simT=24929.0s realT=1s; (s/r): 24929.0
2024-04-09T17:05:56,885  INFO AbstractQNetsimEngine:366 SIMULATION (QNetsimEngine) AT 14:00:00 : #links=0 #nodes=0
2024-04-09T17:05:56,885  INFO QSim:566 SIMULATION (NEW QSim) AT 14:00:00 : #Veh=339 lost=0 simT=28529.0s realT=1s; (s/r): 28529.0
2024-04-09T17:05:57,034  INFO AbstractQNetsimEngine:366 SIMULATION (QNetsimEngine) AT 15:00:00 : #links=0 #nodes=0
2024-04-09T17:05:57,034  INFO QSim:566 SIMULATION (NEW QSim) AT 15:00:00 : #Veh=330 lost=0 simT=32129.0s realT=1s; (s/r): 32129.0
2024-04-09T17:05:57,185  INFO AbstractQNetsimEngine:366 SIMULATION (QNetsimEngine) AT 16:00:00 : #links=0 #nodes=0
2024-04-09T17:05:57,185  INFO QSim:566 SIMULATION (NEW QSim) AT 16:00:00 : #Veh=303 lost=0 simT=35729.0s realT=1s; (s/r): 35729.0
2024-04-09T17:05:57,333  INFO AbstractQNetsimEngine:366 SIMULATION (QNetsimEngine) AT 17:00:00 : #links=0 #nodes=0
2024-04-09T17:05:57,333  INFO QSim:566 SIMULATION (NEW QSim) AT 17:00:00 : #Veh=270 lost=0 simT=39329.0s realT=1s; (s/r): 39329.0
2024-04-09T17:05:57,484  INFO AbstractQNetsimEngine:366 SIMULATION (QNetsimEngine) AT 18:00:00 : #links=0 #nodes=0
2024-04-09T17:05:57,484  INFO QSim:566 SIMULATION (NEW QSim) AT 18:00:00 : #Veh=189 lost=0 simT=42929.0s realT=1s; (s/r): 42929.0
2024-04-09T17:05:57,668  INFO AbstractQNetsimEngine:366 SIMULATION (QNetsimEngine) AT 19:00:00 : #links=0 #nodes=0
2024-04-09T17:05:57,668  INFO QSim:566 SIMULATION (NEW QSim) AT 19:00:00 : #Veh=144 lost=0 simT=46529.0s realT=2s; (s/r): 23264.5
2024-04-09T17:05:57,868  INFO AbstractQNetsimEngine:366 SIMULATION (QNetsimEngine) AT 20:00:00 : #links=0 #nodes=0
2024-04-09T17:05:57,868  INFO QSim:566 SIMULATION (NEW QSim) AT 20:00:00 : #Veh=97 lost=0 simT=50129.0s realT=2s; (s/r): 25064.5
2024-04-09T17:05:58,051  INFO AbstractQNetsimEngine:366 SIMULATION (QNetsimEngine) AT 21:00:00 : #links=0 #nodes=0
2024-04-09T17:05:58,051  INFO QSim:566 SIMULATION (NEW QSim) AT 21:00:00 : #Veh=41 lost=0 simT=53729.0s realT=2s; (s/r): 26864.5
2024-04-09T17:05:58,234  INFO AbstractQNetsimEngine:366 SIMULATION (QNetsimEngine) AT 22:00:00 : #links=0 #nodes=0
2024-04-09T17:05:58,234  INFO QSim:566 SIMULATION (NEW QSim) AT 22:00:00 : #Veh=25 lost=0 simT=57329.0s realT=2s; (s/r): 28664.5
2024-04-09T17:05:58,417  INFO AbstractQNetsimEngine:366 SIMULATION (QNetsimEngine) AT 23:00:00 : #links=0 #nodes=0
2024-04-09T17:05:58,417  INFO QSim:566 SIMULATION (NEW QSim) AT 23:00:00 : #Veh=8 lost=0 simT=60929.0s realT=2s; (s/r): 30464.5
2024-04-09T17:05:58,584  INFO AbstractQNetsimEngine:366 SIMULATION (QNetsimEngine) AT 24:00:00 : #links=0 #nodes=0
2024-04-09T17:05:58,584  INFO QSim:566 SIMULATION (NEW QSim) AT 24:00:00 : #Veh=4 lost=0 simT=64529.0s realT=3s; (s/r): 21509.666666666668
2024-04-09T17:05:58,751  INFO AbstractQNetsimEngine:366 SIMULATION (QNetsimEngine) AT 25:00:00 : #links=0 #nodes=0
2024-04-09T17:05:58,751  INFO QSim:566 SIMULATION (NEW QSim) AT 25:00:00 : #Veh=1 lost=0 simT=68129.0s realT=3s; (s/r): 22709.666666666668
2024-04-09T17:05:58,935  INFO AbstractQNetsimEngine:366 SIMULATION (QNetsimEngine) AT 26:00:00 : #links=0 #nodes=0
2024-04-09T17:05:58,935  INFO QSim:566 SIMULATION (NEW QSim) AT 26:00:00 : #Veh=1 lost=0 simT=71729.0s realT=3s; (s/r): 23909.666666666668
2024-04-09T17:05:59,034  INFO AbstractController$9:235 ### ITERATION 2 fires after mobsim event
2024-04-09T17:05:59,034  INFO Gbl:192 Thread performance: Thread=class org.matsim.core.events.SimStepParallelEventsManagerImpl$ProcessEventsRunnable0  cpu-time=0.875sec
2024-04-09T17:05:59,049  INFO ControlerListenerManagerImpl:249 calling notifyAfterMobsim on org.matsim.analysis.LegTimesControlerListener
2024-04-09T17:05:59,051  INFO LegTimesControlerListener:51 [2] average trip (probably: leg) duration is: 2999 seconds = 00:49:59
2024-04-09T17:05:59,051  INFO ControlerListenerManagerImpl:249 calling notifyAfterMobsim on org.matsim.core.events.MobsimScopeEventHandling
2024-04-09T17:05:59,051  INFO ControlerListenerManagerImpl:249 calling notifyAfterMobsim on org.matsim.core.scoring.EventsToActivities$1
2024-04-09T17:05:59,051  INFO ControlerListenerManagerImpl:252 [it.2] all ControlerAfterMobsimListeners called.
2024-04-09T17:05:59,051  INFO AbstractController$4:160 ### ITERATION 2 fires scoring event
2024-04-09T17:05:59,051  INFO ControlerListenerManagerImpl:184 calling notifyScoring on org.matsim.core.scoring.PlansScoringImpl
2024-04-09T17:05:59,051  INFO NewScoreAssignerImpl:58 it: 2 msaStart: null
2024-04-09T17:05:59,051  INFO ControlerListenerManagerImpl:195 [it.2] all ControlerScoringListeners called.
2024-04-09T17:05:59,051  INFO AbstractController$5:168 ### ITERATION 2 fires iteration end event
2024-04-09T17:05:59,051  INFO ControlerListenerManagerImpl:161 calling notifyIterationEnds on org.matsim.core.controler.corelisteners.EventsHandlingImpl
2024-04-09T17:05:59,051  INFO EventsManagerImpl:159 removing Event-Handler: org.matsim.core.events.algorithms.EventWriterXML
2024-04-09T17:05:59,051  INFO EventsManagerImpl:159 removing Event-Handler: org.matsim.core.events.algorithms.EventWriterXML
2024-04-09T17:05:59,051  INFO ControlerListenerManagerImpl:161 calling notifyIterationEnds on org.matsim.core.scoring.PlansScoringImpl
2024-04-09T17:05:59,051  INFO ControlerListenerManagerImpl:168 calling notifyIterationEnds on org.matsim.counts.CountsControlerListener
2024-04-09T17:05:59,051  INFO ControlerListenerManagerImpl:168 calling notifyIterationEnds on org.matsim.analysis.ModeStatsControlerListener
2024-04-09T17:05:59,051  INFO ModeStatsControlerListener:145 Mode shares over all 1416.0 trips found. MainModeIdentifier: class org.matsim.core.router.RoutingModeMainModeIdentifier
2024-04-09T17:05:59,051  INFO ModeStatsControlerListener:152 -- mode share of mode car = 0.7549435028248588
2024-04-09T17:05:59,051  INFO ModeStatsControlerListener:152 -- mode share of mode car_passenger = 0.09110169491525423
2024-04-09T17:05:59,051  INFO ModeStatsControlerListener:152 -- mode share of mode pt = 0.01694915254237288
2024-04-09T17:05:59,051  INFO ModeStatsControlerListener:152 -- mode share of mode walk = 0.1370056497175141
2024-04-09T17:05:59,151  INFO ControlerListenerManagerImpl:168 calling notifyIterationEnds on org.matsim.analysis.ScoreStatsControlerListener
2024-04-09T17:05:59,151  INFO ScoreStatsControlerListener:182 -- avg. score of the executed plan of each agent: -3.0540981148243334
2024-04-09T17:05:59,151  INFO ScoreStatsControlerListener:183 -- avg. score of the worst plan of each agent: -3.073188374750069
2024-04-09T17:05:59,151  INFO ScoreStatsControlerListener:184 -- avg. of the avg. plan score per agent: -3.0560929020279892
2024-04-09T17:05:59,151  INFO ScoreStatsControlerListener:185 -- avg. score of the best plan of each agent: -3.0389974293059097
2024-04-09T17:05:59,218  INFO ControlerListenerManagerImpl:168 calling notifyIterationEnds on org.matsim.analysis.IterationTravelStatsControlerListener
2024-04-09T17:05:59,218  INFO TravelDistanceStats:144 -- average leg distance per plan (executed plans only): 7221.696243732194 meters
2024-04-09T17:05:59,218  INFO TravelDistanceStats:145 average leg distance per Person (executed plans only): 26473.364636406444 meters (statistic on all 1426 legs which have a finite distance)
2024-04-09T17:05:59,218  INFO TravelDistanceStats:146 -- average trip distance per plan (executed plans only): 7272.696923419568 meters
2024-04-09T17:05:59,218  INFO TravelDistanceStats:147 average trip distance per Person (executed plans only): 26473.364636406444 meters (statistic on all 1416 trips which have a finite distance)
2024-04-09T17:05:59,218  INFO TravelDistanceStats:148 (TravelDistanceStats takes an average over all legs where the simulation reports travelled (network) distances
2024-04-09T17:05:59,218  INFO TravelDistanceStats:149 (and teleported legs whose route contains a distance.)
2024-04-09T17:05:59,518  INFO ControlerListenerManagerImpl:168 calling notifyIterationEnds on org.matsim.analysis.LegHistogramListener
2024-04-09T17:05:59,533  INFO LegHistogramListener:73 number of legs:	1426	100%
2024-04-09T17:05:59,533  INFO LegHistogramListener:80 number of car legs:	1069	74.9649368863955%
2024-04-09T17:05:59,533  INFO LegHistogramListener:80 number of car_passenger legs:	129	9.046283309957925%
2024-04-09T17:05:59,533  INFO LegHistogramListener:80 number of pt legs:	5	0.3506311360448808%
2024-04-09T17:05:59,533  INFO LegHistogramListener:80 number of walk legs:	223	15.638148667601683%
2024-04-09T17:05:59,834  INFO ControlerListenerManagerImpl:168 calling notifyIterationEnds on org.matsim.analysis.LinkStatsControlerListener
2024-04-09T17:05:59,834  INFO ControlerListenerManagerImpl:168 calling notifyIterationEnds on org.eqasim.core.simulation.analysis.stuck.StuckAnalysisListener
2024-04-09T17:05:59,834  INFO EventsManagerImpl:159 removing Event-Handler: org.eqasim.core.simulation.analysis.stuck.StuckAnalysisHandler
2024-04-09T17:05:59,834  INFO EventsManagerImpl:159 removing Event-Handler: org.eqasim.core.simulation.analysis.stuck.StuckAnalysisHandler
2024-04-09T17:05:59,834  INFO ControlerListenerManagerImpl:168 calling notifyIterationEnds on org.eqasim.core.simulation.analysis.AnalysisOutputListener
2024-04-09T17:05:59,834  INFO EventsManagerImpl:159 removing Event-Handler: org.eqasim.core.analysis.trips.TripListener
2024-04-09T17:05:59,834  INFO EventsManagerImpl:159 removing Event-Handler: org.eqasim.core.analysis.trips.TripListener
2024-04-09T17:05:59,834  INFO EventsManagerImpl:159 removing Event-Handler: org.eqasim.core.analysis.legs.LegListener
2024-04-09T17:05:59,834  INFO EventsManagerImpl:159 removing Event-Handler: org.eqasim.core.analysis.legs.LegListener
2024-04-09T17:05:59,834  INFO EventsManagerImpl:159 removing Event-Handler: org.eqasim.core.analysis.pt.PublicTransportLegListener
2024-04-09T17:05:59,834  INFO EventsManagerImpl:159 removing Event-Handler: org.eqasim.core.analysis.pt.PublicTransportLegListener
2024-04-09T17:05:59,868  INFO ControlerListenerManagerImpl:168 calling notifyIterationEnds on org.eqasim.vdf.VDFUpdateListener
2024-04-09T17:05:59,868  INFO VDFHorizonHandler:71 Starting aggregation of 2 slices
2024-04-09T17:05:59,930  INFO VDFHorizonHandler:145   Finished aggregation
2024-04-09T17:05:59,930  INFO VDFTravelTime:60 Updating VDFTravelTime ...
2024-04-09T17:06:00,085  INFO VDFTravelTime:89   Done: 69188/1625850 are slower than freespeed
2024-04-09T17:06:00,085  INFO VDFUpdateListener:64 Writing VDF data to simulation_output\ITERS\it.2\2.vdf.bin...
2024-04-09T17:06:18,918  INFO VDFUpdateListener:66   Done
2024-04-09T17:06:18,918  INFO VDFUpdateListener:73 Writing flow information to simulation_output\ITERS\it.2\2.vdf_flow.csv...
2024-04-09T17:06:19,634  INFO VDFUpdateListener:75   Done
2024-04-09T17:06:19,634  INFO ControlerListenerManagerImpl:172 [it.2] all ControlerIterationEndsListeners called.
2024-04-09T17:06:19,701  INFO AbstractController:182 ### ITERATION 2 ENDS
2024-04-09T17:06:19,701  INFO AbstractController:183 ###################################################
2024-04-09T17:06:19,701  INFO MatsimRuntimeModifications:80 S H U T D O W N   ---   start shutdown.
2024-04-09T17:06:19,701  INFO ControlerListenerManagerImpl:122 calling notifyShutdown on org.matsim.core.controler.corelisteners.EventsHandlingImpl
2024-04-09T17:06:19,701  INFO ControlerListenerManagerImpl:122 calling notifyShutdown on org.matsim.core.controler.corelisteners.DumpDataAtEndImpl
2024-04-09T17:06:19,701  INFO Counter:70 [PopulationWriter] dumped person # 1
2024-04-09T17:06:19,701  INFO Counter:70 [PopulationWriter] dumped person # 2
2024-04-09T17:06:19,701  INFO Counter:70 [PopulationWriter] dumped person # 4
2024-04-09T17:06:19,701  INFO Counter:70 [PopulationWriter] dumped person # 8
2024-04-09T17:06:19,701  INFO Counter:70 [PopulationWriter] dumped person # 16
2024-04-09T17:06:19,701  INFO Counter:70 [PopulationWriter] dumped person # 32
2024-04-09T17:06:19,701  INFO Counter:70 [PopulationWriter] dumped person # 64
2024-04-09T17:06:19,718  INFO Counter:70 [PopulationWriter] dumped person # 128
2024-04-09T17:06:19,718  INFO Counter:70 [PopulationWriter] dumped person # 256
2024-04-09T17:06:19,734  INFO PopulationWriter:145 Population written to: simulation_output/output_plans.xml.gz
2024-04-09T17:06:19,734  INFO Counter:75 [PopulationWriter] dumped person # 389
2024-04-09T17:06:19,734  INFO NetworkWriter:70 Writing network to file: simulation_output/output_network.xml.gz...
2024-04-09T17:06:20,435  INFO NetworkWriter:73 done.
2024-04-09T17:06:20,451  INFO Config:602 setting context to [file:/C:/Users/ulysse.marcandella/Desktop/eqasim-java/examples/]
2024-04-09T17:06:20,451  INFO Config:602 setting context to [file:/C:/Users/ulysse.marcandella/Desktop/eqasim-java/examples/]
2024-04-09T17:06:20,451  INFO Config:602 setting context to [file:/C:/Users/ulysse.marcandella/Desktop/eqasim-java/examples/]
2024-04-09T17:06:20,451  INFO Config:602 setting context to [file:/C:/Users/ulysse.marcandella/Desktop/eqasim-java/examples/]
2024-04-09T17:06:20,451  INFO Config:602 setting context to [file:/C:/Users/ulysse.marcandella/Desktop/eqasim-java/examples/]
2024-04-09T17:06:20,451  INFO Config:602 setting context to [file:/C:/Users/ulysse.marcandella/Desktop/eqasim-java/examples/]
2024-04-09T17:06:20,451  INFO Config:602 setting context to [file:/C:/Users/ulysse.marcandella/Desktop/eqasim-java/examples/]
2024-04-09T17:06:20,451  INFO Config:602 setting context to [file:/C:/Users/ulysse.marcandella/Desktop/eqasim-java/examples/]
2024-04-09T17:06:20,451  INFO Config:602 setting context to [file:/C:/Users/ulysse.marcandella/Desktop/eqasim-java/examples/]
2024-04-09T17:06:20,451  INFO Config:602 setting context to [file:/C:/Users/ulysse.marcandella/Desktop/eqasim-java/examples/]
2024-04-09T17:06:20,451  INFO Config:602 setting context to [file:/C:/Users/ulysse.marcandella/Desktop/eqasim-java/examples/]
2024-04-09T17:06:20,451  INFO Config:602 setting context to [file:/C:/Users/ulysse.marcandella/Desktop/eqasim-java/examples/]
2024-04-09T17:06:20,451  INFO Config:602 setting context to [file:/C:/Users/ulysse.marcandella/Desktop/eqasim-java/examples/]
2024-04-09T17:06:20,451  INFO Config:602 setting context to [file:/C:/Users/ulysse.marcandella/Desktop/eqasim-java/examples/]
2024-04-09T17:06:20,467  INFO Config:602 setting context to [file:/C:/Users/ulysse.marcandella/Desktop/eqasim-java/examples/]
2024-04-09T17:06:20,468  INFO Config:602 setting context to [file:/C:/Users/ulysse.marcandella/Desktop/eqasim-java/examples/]
2024-04-09T17:06:20,468  INFO Config:602 setting context to [file:/C:/Users/ulysse.marcandella/Desktop/eqasim-java/examples/]
2024-04-09T17:06:20,468  INFO Config:602 setting context to [file:/C:/Users/ulysse.marcandella/Desktop/eqasim-java/examples/]
2024-04-09T17:06:20,468  INFO Config:602 setting context to [file:/C:/Users/ulysse.marcandella/Desktop/eqasim-java/examples/]
2024-04-09T17:06:20,483  INFO Config:602 setting context to [file:/C:/Users/ulysse.marcandella/Desktop/eqasim-java/examples/]
2024-04-09T17:06:20,484  WARN PlansCalcRouteConfigGroup:378 The first mode routing (= teleported mode) params that are explicitly defined clear the default mode routing (= teleported mode) params.  If you want to avoid this 
2024-04-09T17:06:20,484  WARN PlansCalcRouteConfigGroup:379     warning, use clearTeleportedModeParams(true) in code, and "clearDefaultTeleportedModeParams"=true in xml config.
2024-04-09T17:06:20,484  INFO Config:602 setting context to [file:/C:/Users/ulysse.marcandella/Desktop/eqasim-java/examples/]
2024-04-09T17:06:20,484  INFO Config:602 setting context to [file:/C:/Users/ulysse.marcandella/Desktop/eqasim-java/examples/]
2024-04-09T17:06:20,484  INFO Config:602 setting context to [file:/C:/Users/ulysse.marcandella/Desktop/eqasim-java/examples/]
2024-04-09T17:06:20,484  INFO Config:602 setting context to [file:/C:/Users/ulysse.marcandella/Desktop/eqasim-java/examples/]
2024-04-09T17:06:20,484  INFO Config:602 setting context to [file:/C:/Users/ulysse.marcandella/Desktop/eqasim-java/examples/]
2024-04-09T17:06:20,484  INFO Config:602 setting context to [file:/C:/Users/ulysse.marcandella/Desktop/eqasim-java/examples/]
2024-04-09T17:06:20,484  INFO Config:602 setting context to [file:/C:/Users/ulysse.marcandella/Desktop/eqasim-java/examples/]
2024-04-09T17:06:20,484  INFO Config:602 setting context to [file:/C:/Users/ulysse.marcandella/Desktop/eqasim-java/examples/]
2024-04-09T17:06:20,484  INFO Config:602 setting context to [file:/C:/Users/ulysse.marcandella/Desktop/eqasim-java/examples/]
2024-04-09T17:06:20,484  INFO Config:602 setting context to [file:/C:/Users/ulysse.marcandella/Desktop/eqasim-java/examples/]
2024-04-09T17:06:20,484  INFO Config:602 setting context to [file:/C:/Users/ulysse.marcandella/Desktop/eqasim-java/examples/]
2024-04-09T17:06:20,617  INFO TransitScheduleWriter:88 about to write transit schedule to: simulation_output/output_transitSchedule.xml.gz
2024-04-09T17:06:20,651  INFO MatsimVehicleWriter:55 about to write vehicles to: simulation_output/output_transitVehicles.xml.gz
2024-04-09T17:06:20,651  INFO VehicleWriterV2:64 about to write vehicles to: simulation_output/output_transitVehicles.xml.gz
2024-04-09T17:06:20,651  INFO MatsimVehicleWriter:55 about to write vehicles to: simulation_output/output_vehicles.xml.gz
2024-04-09T17:06:20,651  INFO VehicleWriterV2:64 about to write vehicles to: simulation_output/output_vehicles.xml.gz
2024-04-09T17:06:20,651  INFO VehicleUtils:328 adding scenario element for allvehicles container
2024-04-09T17:06:20,651  INFO HouseholdsWriterV10:67 about to write  households to: simulation_output/output_households.xml.gz
2024-04-09T17:06:20,651  INFO Counter:70 [HouseholdsWriter] wrote household # 1
2024-04-09T17:06:20,651  INFO Counter:70 [HouseholdsWriter] wrote household # 2
2024-04-09T17:06:20,651  INFO Counter:70 [HouseholdsWriter] wrote household # 4
2024-04-09T17:06:20,651  INFO Counter:70 [HouseholdsWriter] wrote household # 8
2024-04-09T17:06:20,651  INFO Counter:70 [HouseholdsWriter] wrote household # 16
2024-04-09T17:06:20,651  INFO Counter:70 [HouseholdsWriter] wrote household # 32
2024-04-09T17:06:20,651  INFO Counter:70 [HouseholdsWriter] wrote household # 64
2024-04-09T17:06:20,651  INFO Counter:70 [HouseholdsWriter] wrote household # 128
2024-04-09T17:06:20,651  INFO Counter:75 [HouseholdsWriter] wrote household # 167
2024-04-09T17:06:20,684  INFO ControlerListenerManagerImpl:127 calling notifyShutdown on org.matsim.analysis.ScoreStatsControlerListener
2024-04-09T17:06:20,684  INFO ControlerListenerManagerImpl:127 calling notifyShutdown on org.matsim.analysis.IterationTravelStatsControlerListener
2024-04-09T17:06:20,684  INFO IterationTravelStatsControlerListener:109 Writing all Person and Attributes to personscsv
2024-04-09T17:06:20,701  INFO IterationTravelStatsControlerListener:153 ...done
2024-04-09T17:06:20,701  INFO ControlerListenerManagerImpl:127 calling notifyShutdown on org.eqasim.core.simulation.analysis.AnalysisOutputListener
2024-04-09T17:06:20,701  INFO ControlerListenerManagerImpl:127 calling notifyShutdown on org.eqasim.vdf.VDFUpdateListener
2024-04-09T17:06:20,884  INFO ControlerListenerManagerImpl:130 all ControlerShutdownListeners called.
2024-04-09T17:06:20,884  INFO MatsimRuntimeModifications:103 S H U T D O W N   ---   shutdown completed.
2024-04-09T17:06:20,884  INFO OutputDirectoryLogging:171 closing the logfile, i.e. messages sent to the logger after this message are not written to the logfile.
